@<TRIPOS>MOLECULE
co-former-valsartan_PM7.out
 61 63 0 0 0
SMALL
MULLIKEN_CHARGES

@<TRIPOS>ATOM
      1 O           5.0175   -0.2663    1.4894 O.3     1  UNL1       -0.5815
      2 O           2.1160   -0.3331   -1.7423 O.2     1  UNL1       -0.5331
      3 O           3.7642   -0.4683    3.3148 O.2     1  UNL1       -0.4811
      4 N           2.3194    0.3447    0.3885 N.am    1  UNL1       -0.5165
      5 N           0.3471   -6.1447    2.1690 N.ar    1  UNL1       -0.2348
      6 N           0.9944   -7.5329    0.5248 N.ar    1  UNL1       -0.2222
      7 N          -0.6576   -6.4205    1.3086 N.ar    1  UNL1       -0.1320
      8 N          -0.2487   -7.2582    0.3223 N.ar    1  UNL1       -0.0221
      9 C           3.0696    1.0218    1.4420 C.3     1  UNL1        0.0010
     10 C           2.1532    1.9117    2.3338 C.3     1  UNL1       -0.0726
     11 C           1.2799   -0.6292    0.7686 C.3     1  UNL1       -0.0780
     12 C           2.7463    0.3289   -0.9416 C.2     1  UNL1        0.5979
     13 C           1.6283    1.2361    3.5978 C.3     1  UNL1       -0.4547
     14 C           2.9283    3.1785    2.7207 C.3     1  UNL1       -0.4629
     15 C           3.9249    1.1686   -1.3731 C.3     1  UNL1       -0.3661
     16 C           3.9109    0.0201    2.2309 C.2     1  UNL1        0.6137
     17 C           1.8569   -1.9576    1.1873 C.ar    1  UNL1       -0.0542
     18 C           3.5113    2.6364   -1.5173 C.3     1  UNL1       -0.2588
     19 C           4.7409    3.5241   -1.7457 C.3     1  UNL1       -0.2458
     20 C           2.4859   -2.7724    0.2443 C.ar    1  UNL1       -0.1380
     21 C           1.7512   -2.3802    2.5126 C.ar    1  UNL1       -0.1382
     22 C           2.9361   -4.4049    1.9601 C.ar    1  UNL1       -0.0362
     23 C           3.0296   -3.9937    0.6293 C.ar    1  UNL1       -0.1547
     24 C           2.2929   -3.6019    2.9023 C.ar    1  UNL1       -0.1275
     25 C           4.3284    4.9882   -1.8928 C.3     1  UNL1       -0.4422
     26 C           3.5003   -5.6991    2.3670 C.ar    1  UNL1        0.0290
     27 C           2.7586   -6.8788    2.2232 C.ar    1  UNL1       -0.0350
     28 C           4.7929   -5.7579    2.8909 C.ar    1  UNL1       -0.1592
     29 C           3.3153   -8.1091    2.5837 C.ar    1  UNL1       -0.1036
     30 C           5.3420   -6.9839    3.2576 C.ar    1  UNL1       -0.1130
     31 C           1.4112   -6.8391    1.6849 C.ar    1  UNL1        0.1469
     32 C           4.6063   -8.1584    3.1017 C.ar    1  UNL1       -0.1602
     33 H           3.8136    1.7260    0.9504 H       1  UNL1        0.1849
     34 H           1.2770    2.2097    1.6996 H       1  UNL1        0.1536
     35 H           0.6432   -0.1860    1.5668 H       1  UNL1        0.1479
     36 H           0.5987   -0.7793   -0.1126 H       1  UNL1        0.1841
     37 H           1.2302    0.2336    3.4029 H       1  UNL1        0.1543
     38 H           2.4148    1.1101    4.3559 H       1  UNL1        0.1680
     39 H           0.8291    1.8278    4.0579 H       1  UNL1        0.1432
     40 H           3.2271    3.7637    1.8445 H       1  UNL1        0.1432
     41 H           3.8322    2.9423    3.2944 H       1  UNL1        0.1521
     42 H           2.3145    3.8340    3.3503 H       1  UNL1        0.1535
     43 H           4.7841    1.0454   -0.6825 H       1  UNL1        0.1752
     44 H           4.2861    0.7804   -2.3527 H       1  UNL1        0.1822
     45 H           2.9552    2.9836   -0.6256 H       1  UNL1        0.1398
     46 H           2.8018    2.7443   -2.3625 H       1  UNL1        0.1518
     47 H           5.2847    3.1924   -2.6510 H       1  UNL1        0.1382
     48 H           5.4549    3.4147   -0.9072 H       1  UNL1        0.1347
     49 H           2.5483   -2.4519   -0.7989 H       1  UNL1        0.1792
     50 H           1.2587   -1.7552    3.2560 H       1  UNL1        0.1540
     51 H           3.5176   -4.6332   -0.1052 H       1  UNL1        0.1633
     52 H           2.2084   -3.9345    3.9361 H       1  UNL1        0.1627
     53 H           5.1991    5.6318   -2.0604 H       1  UNL1        0.1403
     54 H           3.8166    5.3561   -0.9968 H       1  UNL1        0.1414
     55 H           3.6500    5.1311   -2.7420 H       1  UNL1        0.1455
     56 H           5.5954   -0.9634    1.8841 H       1  UNL1        0.3597
     57 H           5.3665   -4.8394    3.0084 H       1  UNL1        0.1622
     58 H           2.7367   -9.0241    2.4525 H       1  UNL1        0.1646
     59 H           6.3513   -7.0250    3.6642 H       1  UNL1        0.1486
     60 H           5.0408   -9.1155    3.3834 H       1  UNL1        0.1542
     61 H          -1.5752   -6.0209    1.4042 H       1  UNL1        0.3531
@<TRIPOS>BOND
     1    55    25    1
     2    47    19    1
     3    46    18    1
     4    44    15    1
     5    53    25    1
     6    25    19    1
     7    25    54    1
     8    19    18    1
     9    19    48    1
    10     2    12    2
    11    18    15    1
    12    18    45    1
    13    15    12    1
    14    15    43    1
    15    12     4   am
    16    49    20    1
    17    36    11    1
    18    51    23    1
    19    20    23   ar
    20    20    17   ar
    21     8     6   ar
    22     8     7   ar
    23     4    11    1
    24     4     9    1
    25     6    31   ar
    26    23    22   ar
    27    11    17    1
    28    11    35    1
    29    33     9    1
    30    17    21   ar
    31     7    61    1
    32     7     5   ar
    33     9    16    1
    34     9    10    1
    35     1    56    1
    36     1    16    1
    37    31     5   ar
    38    31    27    1
    39    34    10    1
    40    40    14    1
    41    22    26    1
    42    22    24   ar
    43    27    26   ar
    44    27    29   ar
    45    16     3    2
    46    10    14    1
    47    10    13    1
    48    26    28   ar
    49    58    29    1
    50    21    24   ar
    51    21    50    1
    52    29    32   ar
    53    14    41    1
    54    14    42    1
    55    28    57    1
    56    28    30   ar
    57    24    52    1
    58    32    30   ar
    59    32    60    1
    60    30    59    1
    61    37    13    1
    62    13    39    1
    63    13    38    1
