@<TRIPOS>MOLECULE
co-former-valsartan_PM6.out
 61 63 0 0 0
SMALL
MULLIKEN_CHARGES

@<TRIPOS>ATOM
      1 O           5.0842   -0.2045    2.3575 O.3     1  UNL1       -0.5460
      2 O           2.2003   -0.2947   -1.3741 O.2     1  UNL1       -0.6700
      3 O           3.5185   -0.1307    3.9393 O.2     1  UNL1       -0.5615
      4 N           2.5195    0.3343    0.7777 N.am    1  UNL1       -0.3874
      5 N           0.3049   -6.6945    1.5620 N.ar    1  UNL1       -0.2867
      6 N           1.4382   -7.2278   -0.3245 N.ar    1  UNL1       -0.2803
      7 N          -0.5082   -6.7469    0.4809 N.ar    1  UNL1        0.0544
      8 N           0.1770   -7.0688   -0.6433 N.ar    1  UNL1       -0.1031
      9 C           3.2381    1.1346    1.7942 C.3     1  UNL1       -0.0714
     10 C           2.3651    2.2622    2.4260 C.3     1  UNL1        0.0074
     11 C           1.4430   -0.6028    1.2083 C.3     1  UNL1       -0.1263
     12 C           2.8477    0.3958   -0.5808 C.2     1  UNL1        0.6381
     13 C           1.3706    1.7768    3.4756 C.3     1  UNL1       -0.5105
     14 C           3.2983    3.3206    3.0200 C.3     1  UNL1       -0.5220
     15 C           3.9513    1.3111   -1.0479 C.3     1  UNL1       -0.4282
     16 C           3.8783    0.2140    2.8355 C.2     1  UNL1        0.6443
     17 C           1.9739   -1.9877    1.4909 C.ar    1  UNL1       -0.0112
     18 C           3.3726    2.6586   -1.4983 C.3     1  UNL1       -0.2322
     19 C           4.4710    3.5726   -2.0570 C.3     1  UNL1       -0.2280
     20 C           2.3529   -2.8254    0.4316 C.ar    1  UNL1       -0.1576
     21 C           2.0692   -2.4521    2.8096 C.ar    1  UNL1       -0.1673
     22 C           2.9229   -4.5749    2.0109 C.ar    1  UNL1       -0.0103
     23 C           2.8255   -4.1144    0.6878 C.ar    1  UNL1       -0.1646
     24 C           2.5425   -3.7386    3.0700 C.ar    1  UNL1       -0.1541
     25 C           3.8919    4.8931   -2.5544 C.3     1  UNL1       -0.4774
     26 C           3.4510   -5.9292    2.2907 C.ar    1  UNL1        0.0374
     27 C           2.7978   -7.0863    1.8244 C.ar    1  UNL1       -0.0486
     28 C           4.6354   -6.0662    3.0286 C.ar    1  UNL1       -0.1905
     29 C           3.3362   -8.3578    2.0852 C.ar    1  UNL1       -0.1147
     30 C           5.1681   -7.3305    3.2872 C.ar    1  UNL1       -0.1030
     31 C           1.5532   -6.9970    1.0654 C.ar    1  UNL1        0.1373
     32 C           4.5203   -8.4756    2.8118 C.ar    1  UNL1       -0.1708
     33 H           4.1123    1.6560    1.2737 H       1  UNL1        0.1952
     34 H           1.7888    2.7246    1.5803 H       1  UNL1        0.1434
     35 H           0.9177   -0.1746    2.1029 H       1  UNL1        0.1722
     36 H           0.6707   -0.6525    0.3980 H       1  UNL1        0.1784
     37 H           0.6944    1.0018    3.0781 H       1  UNL1        0.1607
     38 H           1.8710    1.3475    4.3537 H       1  UNL1        0.1730
     39 H           0.7411    2.6026    3.8330 H       1  UNL1        0.1675
     40 H           3.9757    3.7485    2.2724 H       1  UNL1        0.1632
     41 H           3.9127    2.9217    3.8368 H       1  UNL1        0.1654
     42 H           2.7236    4.1577    3.4402 H       1  UNL1        0.1734
     43 H           4.7342    1.4643   -0.2711 H       1  UNL1        0.1856
     44 H           4.4864    0.8192   -1.8931 H       1  UNL1        0.2019
     45 H           2.8615    3.1588   -0.6513 H       1  UNL1        0.1411
     46 H           2.5901    2.4962   -2.2684 H       1  UNL1        0.1472
     47 H           5.0079    3.0627   -2.8821 H       1  UNL1        0.1361
     48 H           5.2373    3.7648   -1.2789 H       1  UNL1        0.1353
     49 H           2.2796   -2.4633   -0.5972 H       1  UNL1        0.1721
     50 H           1.7853   -1.8020    3.6415 H       1  UNL1        0.1698
     51 H           3.1213   -4.7612   -0.1386 H       1  UNL1        0.1665
     52 H           2.6183   -4.0939    4.1003 H       1  UNL1        0.1670
     53 H           4.6762    5.5463   -2.9556 H       1  UNL1        0.1536
     54 H           3.3884    5.4450   -1.7515 H       1  UNL1        0.1539
     55 H           3.1554    4.7405   -3.3527 H       1  UNL1        0.1541
     56 H           5.5722   -0.8319    2.9786 H       1  UNL1        0.3797
     57 H           5.1448   -5.1741    3.4013 H       1  UNL1        0.1763
     58 H           2.8268   -9.2515    1.7199 H       1  UNL1        0.1729
     59 H           6.0932   -7.4242    3.8577 H       1  UNL1        0.1663
     60 H           4.9423   -9.4623    3.0119 H       1  UNL1        0.1717
     61 H          -1.5253   -6.5666    0.5265 H       1  UNL1        0.3615
@<TRIPOS>BOND
     1    55    25    1
     2    53    25    1
     3    47    19    1
     4    25    19    1
     5    25    54    1
     6    46    18    1
     7    19    18    1
     8    19    48    1
     9    44    15    1
    10    18    15    1
    11    18    45    1
    12     2    12    2
    13    15    12    1
    14    15    43    1
    15     8     6   ar
    16     8     7   ar
    17    49    20    1
    18    12     4   am
    19     6    31   ar
    20    51    23    1
    21    36    11    1
    22    20    23   ar
    23    20    17   ar
    24     7    61    1
    25     7     5   ar
    26    23    22   ar
    27     4    11    1
    28     4     9    1
    29    31     5   ar
    30    31    27    1
    31    11    17    1
    32    11    35    1
    33    33     9    1
    34    17    21   ar
    35    34    10    1
    36    58    29    1
    37     9    10    1
    38     9    16    1
    39    27    29   ar
    40    27    26   ar
    41    22    26    1
    42    22    24   ar
    43    29    32   ar
    44    40    14    1
    45    26    28   ar
    46     1    16    1
    47     1    56    1
    48    10    14    1
    49    10    13    1
    50    21    24   ar
    51    21    50    1
    52    32    60    1
    53    32    30   ar
    54    16     3    2
    55    14    42    1
    56    14    41    1
    57    28    30   ar
    58    28    57    1
    59    24    52    1
    60    37    13    1
    61    30    59    1
    62    13    39    1
    63    13    38    1
