@<TRIPOS>MOLECULE
drug-sacubitril_PM7.out
 59 60 0 0 0
SMALL
MULLIKEN_CHARGES

@<TRIPOS>ATOM
      1 O          40.9453   25.0783  -12.5875 O.3     1  UNL1       -0.4425
      2 O          40.3905   24.0798  -10.6509 O.2     1  UNL1       -0.5182
      3 O          34.7957   25.4404  -13.3957 O.2     1  UNL1       -0.5349
      4 O          31.2663   21.6535  -14.1687 O.3     1  UNL1       -0.5679
      5 O          31.2441   22.0156  -11.9683 O.2     1  UNL1       -0.5075
      6 N          35.7258   24.1680  -11.7702 N.am    1  UNL1       -0.6112
      7 C          37.0969   24.5061  -12.1822 C.3     1  UNL1        0.1053
      8 C          37.7598   25.3165  -11.0475 C.3     1  UNL1       -0.3169
      9 C          39.0774   25.9620  -11.4896 C.3     1  UNL1       -0.1556
     10 C          37.8912   23.2076  -12.4827 C.3     1  UNL1       -0.3578
     11 C          37.0527   22.2291  -13.2412 C.ar    1  UNL1        0.0226
     12 C          39.4979   27.0685  -10.5197 C.3     1  UNL1       -0.4414
     13 C          40.1766   24.9230  -11.4824 C.2     1  UNL1        0.5973
     14 C          34.6550   24.6017  -12.5298 C.2     1  UNL1        0.5903
     15 C          36.5577   21.0895  -12.6030 C.ar    1  UNL1       -0.1796
     16 C          36.7309   22.4685  -14.5796 C.ar    1  UNL1       -0.1620
     17 C          33.3157   23.9657  -12.2212 C.3     1  UNL1       -0.3494
     18 C          35.3924   20.4566  -14.6226 C.ar    1  UNL1       -0.0354
     19 C          35.7306   20.2064  -13.2907 C.ar    1  UNL1       -0.1488
     20 C          35.8989   21.5901  -15.2654 C.ar    1  UNL1       -0.1447
     21 C          33.0045   22.9821  -13.3481 C.3     1  UNL1       -0.3404
     22 C          34.5198   19.5284  -15.3505 C.ar    1  UNL1       -0.0198
     23 C          42.0441   24.1827  -12.7675 C.3     1  UNL1        0.0086
     24 C          34.8755   18.1814  -15.4598 C.ar    1  UNL1       -0.1522
     25 C          33.3389   19.9872  -15.9399 C.ar    1  UNL1       -0.1444
     26 C          31.7734   22.2001  -13.0316 C.2     1  UNL1        0.6530
     27 C          41.5488   22.8947  -13.4032 C.3     1  UNL1       -0.4792
     28 C          34.0559   17.3000  -16.1601 C.ar    1  UNL1       -0.1463
     29 C          32.5229   19.1019  -16.6396 C.ar    1  UNL1       -0.1437
     30 C          32.8801   17.7592  -16.7515 C.ar    1  UNL1       -0.1512
     31 H          37.0484   25.1346  -13.1157 H       1  UNL1        0.1719
     32 H          37.0532   26.1085  -10.7194 H       1  UNL1        0.1694
     33 H          37.9215   24.6800  -10.1547 H       1  UNL1        0.1658
     34 H          38.9646   26.3956  -12.5173 H       1  UNL1        0.1752
     35 H          38.8034   23.4659  -13.0621 H       1  UNL1        0.1679
     36 H          38.2741   22.7661  -11.5388 H       1  UNL1        0.1700
     37 H          35.6293   23.4162  -11.1066 H       1  UNL1        0.3126
     38 H          39.6225   26.6854   -9.4980 H       1  UNL1        0.1600
     39 H          38.7489   27.8694  -10.4831 H       1  UNL1        0.1585
     40 H          40.4491   27.5272  -10.8189 H       1  UNL1        0.1545
     41 H          36.8202   20.8859  -11.5668 H       1  UNL1        0.1540
     42 H          37.1215   23.3512  -15.0839 H       1  UNL1        0.1598
     43 H          32.5388   24.7595  -12.1663 H       1  UNL1        0.1849
     44 H          33.2877   23.4632  -11.2339 H       1  UNL1        0.1760
     45 H          35.3429   19.3194  -12.7910 H       1  UNL1        0.1589
     46 H          35.6436   21.7803  -16.3074 H       1  UNL1        0.1601
     47 H          33.8547   22.2743  -13.5131 H       1  UNL1        0.1971
     48 H          32.8972   23.5212  -14.3194 H       1  UNL1        0.2007
     49 H          42.7003   24.7675  -13.4393 H       1  UNL1        0.1372
     50 H          42.5506   24.0087  -11.8009 H       1  UNL1        0.1379
     51 H          35.7972   17.8257  -15.0030 H       1  UNL1        0.1546
     52 H          33.0494   21.0340  -15.8427 H       1  UNL1        0.1646
     53 H          40.8927   22.3396  -12.7182 H       1  UNL1        0.1648
     54 H          40.9823   23.0929  -14.3219 H       1  UNL1        0.1586
     55 H          42.3823   22.2314  -13.6623 H       1  UNL1        0.1556
     56 H          34.3345   16.2519  -16.2461 H       1  UNL1        0.1491
     57 H          31.6052   19.4607  -17.1011 H       1  UNL1        0.1496
     58 H          32.2422   17.0700  -17.3000 H       1  UNL1        0.1469
     59 H          30.4648   21.0955  -14.0188 H       1  UNL1        0.3576
@<TRIPOS>BOND
     1    58    30    1
     2    57    29    1
     3    30    29   ar
     4    30    28   ar
     5    29    25   ar
     6    46    20    1
     7    56    28    1
     8    28    24   ar
     9    25    52    1
    10    25    22   ar
    11    24    22   ar
    12    24    51    1
    13    22    18    1
    14    20    18   ar
    15    20    16   ar
    16    42    16    1
    17    18    19   ar
    18    16    11   ar
    19    54    27    1
    20    48    21    1
    21     4    59    1
    22     4    26    1
    23    55    27    1
    24    47    21    1
    25    49    23    1
    26    27    23    1
    27    27    53    1
    28     3    14    2
    29    21    26    1
    30    21    17    1
    31    19    45    1
    32    19    15   ar
    33    11    15   ar
    34    11    10    1
    35    31     7    1
    36    35    10    1
    37    26     5    2
    38    23     1    1
    39    23    50    1
    40    15    41    1
    41     1    13    1
    42    14    17    1
    43    14     6   am
    44    34     9    1
    45    10     7    1
    46    10    36    1
    47    17    43    1
    48    17    44    1
    49     7     6    1
    50     7     8    1
    51     6    37    1
    52     9    13    1
    53     9     8    1
    54     9    12    1
    55    13     2    2
    56     8    32    1
    57     8    33    1
    58    40    12    1
    59    12    39    1
    60    12    38    1
