@<TRIPOS>MOLECULE
9811834
 59 60 0 0 0
SMALL
GASTEIGER

@<TRIPOS>ATOM
      1 O          40.9436   24.8102  -12.4637 O.3     1  UNL1       -0.4647
      2 O          39.9174   23.9099  -10.6192 O.2     1  UNL1       -0.2505
      3 O          34.5390   25.6543  -13.1072 O.2     1  UNL1       -0.2758
      4 O          29.5701   25.4099  -12.2806 O.3     1  UNL1       -0.4806
      5 O          30.3714   23.6454  -11.1772 O.2     1  UNL1       -0.2510
      6 N          35.4068   23.8039  -12.0652 N.am    1  UNL1       -0.3121
      7 C          36.7961   24.0463  -12.4591 C.3     1  UNL1        0.0278
      8 C          37.4207   25.0797  -11.4919 C.3     1  UNL1       -0.0215
      9 C          38.7925   25.6232  -11.9319 C.3     1  UNL1        0.0553
     10 C          37.5830   22.7165  -12.5280 C.3     1  UNL1       -0.0092
     11 C          36.9218   21.6336  -13.3665 C.ar    1  UNL1       -0.0456
     12 C          39.0825   26.9649  -11.2593 C.3     1  UNL1       -0.0522
     13 C          39.9230   24.6776  -11.5715 C.2     1  UNL1        0.3100
     14 C          34.3778   24.6390  -12.4397 C.2     1  UNL1        0.2138
     15 C          36.5319   20.4665  -12.8008 C.ar    1  UNL1       -0.0579
     16 C          36.7151   21.8091  -14.6933 C.ar    1  UNL1       -0.0579
     17 C          33.0308   24.1719  -11.9373 C.3     1  UNL1        0.0340
     18 C          35.7313   19.6860  -14.8636 C.ar    1  UNL1       -0.0179
     19 C          35.9425   19.5049  -13.5396 C.ar    1  UNL1       -0.0538
     20 C          36.1254   20.8485  -15.4327 C.ar    1  UNL1       -0.0538
     21 C          31.9103   25.0991  -12.3889 C.3     1  UNL1        0.0530
     22 C          35.0908   18.6445  -15.6650 C.ar    1  UNL1       -0.0179
     23 C          42.0641   23.9547  -12.2086 C.3     1  UNL1        0.0897
     24 C          35.8138   17.6060  -16.1494 C.ar    1  UNL1       -0.0540
     25 C          33.7645   18.7026  -15.9358 C.ar    1  UNL1       -0.0540
     26 C          30.5839   24.6201  -11.8780 C.2     1  UNL1        0.3052
     27 C          43.1061   24.2076  -13.2804 C.3     1  UNL1       -0.0306
     28 C          35.2223   16.6459  -16.8890 C.ar    1  UNL1       -0.0612
     29 C          33.1740   17.7418  -16.6754 C.ar    1  UNL1       -0.0612
     30 C          33.9027   16.7137  -17.1520 C.ar    1  UNL1       -0.0617
     31 H          36.7716   24.4950  -13.4606 H       1  UNL1        0.0501
     32 H          36.7280   25.9286  -11.4136 H       1  UNL1        0.0291
     33 H          37.4738   24.6514  -10.4824 H       1  UNL1        0.0291
     34 H          38.7831   25.7641  -13.0198 H       1  UNL1        0.0411
     35 H          38.5807   22.8926  -12.9466 H       1  UNL1        0.0331
     36 H          37.7397   22.3452  -11.5063 H       1  UNL1        0.0331
     37 H          35.1996   22.9913  -11.4969 H       1  UNL1        0.1490
     38 H          39.0888   26.8687  -10.1677 H       1  UNL1        0.0238
     39 H          38.3285   27.7104  -11.5327 H       1  UNL1        0.0238
     40 H          40.0617   27.3526  -11.5612 H       1  UNL1        0.0238
     41 H          36.6891   20.2865  -11.7401 H       1  UNL1        0.0620
     42 H          37.0198   22.7310  -15.1825 H       1  UNL1        0.0620
     43 H          33.0670   24.1267  -10.8421 H       1  UNL1        0.0364
     44 H          32.8542   23.1558  -12.3108 H       1  UNL1        0.0364
     45 H          35.6369   18.5781  -13.0594 H       1  UNL1        0.0624
     46 H          35.9696   21.0178  -16.4957 H       1  UNL1        0.0624
     47 H          31.8690   25.1345  -13.4833 H       1  UNL1        0.0382
     48 H          32.0821   26.1127  -12.0095 H       1  UNL1        0.0382
     49 H          42.4845   24.1811  -11.2224 H       1  UNL1        0.0694
     50 H          41.7446   22.9070  -12.2431 H       1  UNL1        0.0694
     51 H          36.8800   17.5388  -15.9464 H       1  UNL1        0.0624
     52 H          33.1634   19.5259  -15.5573 H       1  UNL1        0.0624
     53 H          42.6934   24.0058  -14.2744 H       1  UNL1        0.0262
     54 H          43.4199   25.2567  -13.2729 H       1  UNL1        0.0262
     55 H          43.9848   23.5749  -13.1275 H       1  UNL1        0.0262
     56 H          35.8110   15.8177  -17.2732 H       1  UNL1        0.0618
     57 H          32.1099   17.7977  -16.8867 H       1  UNL1        0.0618
     58 H          33.4266   15.9402  -17.7480 H       1  UNL1        0.0618
     59 H          28.7714   24.9999  -11.8878 H       1  UNL1        0.2951
@<TRIPOS>BOND
     1     1    13    1
     2     1    23    1
     3     2    13    2
     4     3    14    2
     5     4    26    1
     6     4    59    1
     7     5    26    2
     8     6     7    1
     9     6    14   am
    10     6    37    1
    11     7     8    1
    12     7    10    1
    13     7    31    1
    14     8     9    1
    15     8    32    1
    16     8    33    1
    17     9    12    1
    18     9    13    1
    19     9    34    1
    20    10    11    1
    21    10    35    1
    22    10    36    1
    23    11    15   ar
    24    11    16   ar
    25    12    38    1
    26    12    39    1
    27    12    40    1
    28    14    17    1
    29    15    19   ar
    30    15    41    1
    31    16    20   ar
    32    16    42    1
    33    17    21    1
    34    17    43    1
    35    17    44    1
    36    18    19   ar
    37    18    20   ar
    38    18    22    1
    39    19    45    1
    40    20    46    1
    41    21    26    1
    42    21    47    1
    43    21    48    1
    44    22    24   ar
    45    22    25   ar
    46    23    27    1
    47    23    49    1
    48    23    50    1
    49    24    28   ar
    50    24    51    1
    51    25    29   ar
    52    25    52    1
    53    27    53    1
    54    27    54    1
    55    27    55    1
    56    28    30   ar
    57    28    56    1
    58    29    30   ar
    59    29    57    1
    60    30    58    1
