@<TRIPOS>MOLECULE
drug-sacubitril_PM6.out
 59 60 0 0 0
SMALL
MULLIKEN_CHARGES

@<TRIPOS>ATOM
      1 O          40.5252   24.2936  -12.9553 O.3     1  UNL1       -0.4873
      2 O          40.5401   24.4401  -10.7033 O.2     1  UNL1       -0.6036
      3 O          34.4913   24.9237  -13.5183 O.2     1  UNL1       -0.6865
      4 O          29.6913   25.4720  -12.1107 O.3     1  UNL1       -0.5490
      5 O          30.2097   23.3863  -11.5029 O.2     1  UNL1       -0.6099
      6 N          35.5008   23.9010  -11.7531 N.am    1  UNL1       -0.5004
      7 C          36.8787   24.0977  -12.2893 C.3     1  UNL1        0.1318
      8 C          37.6056   25.1196  -11.3876 C.3     1  UNL1       -0.3582
      9 C          38.8731   25.6948  -12.0366 C.3     1  UNL1       -0.1278
     10 C          37.6112   22.7408  -12.3276 C.3     1  UNL1       -0.3846
     11 C          36.9164   21.7221  -13.1866 C.ar    1  UNL1        0.0791
     12 C          39.2280   27.0749  -11.4861 C.3     1  UNL1       -0.4868
     13 C          40.0511   24.7695  -11.7658 C.2     1  UNL1        0.6449
     14 C          34.3831   24.3154  -12.4476 C.2     1  UNL1        0.6365
     15 C          36.4018   20.5491  -12.6140 C.ar    1  UNL1       -0.2079
     16 C          36.8058   21.9190  -14.5726 C.ar    1  UNL1       -0.2058
     17 C          33.0457   23.9827  -11.8207 C.3     1  UNL1       -0.3911
     18 C          35.6921   19.7745  -14.8015 C.ar    1  UNL1       -0.0350
     19 C          35.8005   19.5780  -13.4164 C.ar    1  UNL1       -0.1436
     20 C          36.1927   20.9558  -15.3733 C.ar    1  UNL1       -0.1448
     21 C          31.9528   24.8947  -12.3683 C.3     1  UNL1       -0.3660
     22 C          35.0596   18.7469  -15.6562 C.ar    1  UNL1        0.0177
     23 C          41.7169   23.4320  -12.9660 C.3     1  UNL1        0.0496
     24 C          35.5399   17.4275  -15.6497 C.ar    1  UNL1       -0.1887
     25 C          33.9777   19.0898  -16.4831 C.ar    1  UNL1       -0.1895
     26 C          30.5905   24.4576  -11.9390 C.2     1  UNL1        0.6955
     27 C          42.9537   24.2866  -12.8182 C.3     1  UNL1       -0.5343
     28 C          34.9469   16.4649  -16.4705 C.ar    1  UNL1       -0.1372
     29 C          33.3862   18.1210  -17.2971 C.ar    1  UNL1       -0.1369
     30 C          33.8708   16.8091  -17.2947 C.ar    1  UNL1       -0.1716
     31 H          36.7961   24.5116  -13.3337 H       1  UNL1        0.1555
     32 H          36.9100   25.9586  -11.1587 H       1  UNL1        0.1830
     33 H          37.8356   24.6807  -10.3947 H       1  UNL1        0.1751
     34 H          38.7232   25.7775  -13.1483 H       1  UNL1        0.1790
     35 H          38.6421   22.8949  -12.7203 H       1  UNL1        0.1754
     36 H          37.7535   22.3538  -11.2948 H       1  UNL1        0.1783
     37 H          35.4229   23.3722  -10.8792 H       1  UNL1        0.3083
     38 H          39.3923   27.0596  -10.4001 H       1  UNL1        0.1721
     39 H          38.4223   27.7972  -11.6805 H       1  UNL1        0.1770
     40 H          40.1370   27.4806  -11.9515 H       1  UNL1        0.1712
     41 H          36.4707   20.3902  -11.5366 H       1  UNL1        0.1672
     42 H          37.2030   22.8272  -15.0276 H       1  UNL1        0.1651
     43 H          33.0878   24.0537  -10.7087 H       1  UNL1        0.2030
     44 H          32.8030   22.9118  -12.0253 H       1  UNL1        0.2052
     45 H          35.4122   18.6632  -12.9649 H       1  UNL1        0.1630
     46 H          36.1092   21.1158  -16.4499 H       1  UNL1        0.1629
     47 H          31.9896   24.9244  -13.4888 H       1  UNL1        0.2209
     48 H          32.1330   25.9558  -12.0664 H       1  UNL1        0.2138
     49 H          41.6107   22.6765  -12.1686 H       1  UNL1        0.1394
     50 H          41.6225   22.9590  -13.9628 H       1  UNL1        0.1533
     51 H          36.3784   17.1552  -15.0076 H       1  UNL1        0.1656
     52 H          33.5994   20.1128  -16.4873 H       1  UNL1        0.1653
     53 H          42.9969   25.0815  -13.5754 H       1  UNL1        0.1761
     54 H          43.0014   24.7758  -11.8353 H       1  UNL1        0.1757
     55 H          43.8669   23.6838  -12.9259 H       1  UNL1        0.1804
     56 H          35.3260   15.4420  -16.4688 H       1  UNL1        0.1584
     57 H          32.5449   18.3906  -17.9372 H       1  UNL1        0.1583
     58 H          33.4115   16.0564  -17.9358 H       1  UNL1        0.1602
     59 H          28.7469   25.2233  -11.8545 H       1  UNL1        0.3827
@<TRIPOS>BOND
     1    57    29    1
     2    58    30    1
     3    29    30   ar
     4    29    25   ar
     5    30    28   ar
     6    52    25    1
     7    25    22   ar
     8    28    56    1
     9    28    24   ar
    10    46    20    1
    11    22    24   ar
    12    22    18    1
    13    24    51    1
    14    20    18   ar
    15    20    16   ar
    16    42    16    1
    17    18    19   ar
    18    16    11   ar
    19    50    23    1
    20    53    27    1
    21     3    14    2
    22    47    21    1
    23    19    45    1
    24    19    15   ar
    25    31     7    1
    26    11    15   ar
    27    11    10    1
    28    34     9    1
    29    23     1    1
    30    23    27    1
    31    23    49    1
    32     1    13    1
    33    55    27    1
    34    27    54    1
    35    35    10    1
    36    15    41    1
    37    14    17    1
    38    14     6   am
    39    21    48    1
    40    21    26    1
    41    21    17    1
    42    10     7    1
    43    10    36    1
    44     7     6    1
    45     7     8    1
    46     4    26    1
    47     4    59    1
    48     9    13    1
    49     9    12    1
    50     9     8    1
    51    44    17    1
    52    40    12    1
    53    26     5    2
    54    17    43    1
    55    13     2    2
    56     6    37    1
    57    39    12    1
    58    12    38    1
    59     8    32    1
    60     8    33    1
