@<TRIPOS>MOLECULE
target_44814423_00003
    55    58     1     0     0
SMALL
USER_CHARGES
****
Generated from the CSD

@<TRIPOS>ATOM
     1 CL       2.2940  -3.9255   1.1056   Cl        1 UNL1  -0.0832
     2 O       -2.1547   0.7966  -0.2170   O.3       1 UNL1  -0.3288
     3 O       -3.1217  -0.9149  -1.3386   O.3       1 UNL1  -0.3397
     4 O       -5.5690   1.6714  -1.0227   O.3       1 UNL1  -0.3861
     5 O       -4.1500  -1.9513   1.0232   O.3       1 UNL1  -0.3834
     6 O       -5.0177   0.9405   2.1398   O.3       1 UNL1  -0.3864
     7 O       -2.4168   3.6166  -0.4848   O.3       1 UNL1  -0.3920
     8 O        6.0020   1.4031  -1.3006   O.3       1 UNL1  -0.4922
     9 C       -3.2205   1.3789  -1.0012   C.3       1 UNL1   0.1473
    10 C       -2.5462  -0.5471  -0.0816   C.3       1 UNL1   0.2268
    11 C       -4.4603   1.5520  -0.1382   C.3       1 UNL1   0.1169
    12 C       -3.5969  -0.6413   1.0167   C.3       1 UNL1   0.1417
    13 C       -4.7356   0.3796   0.8606   C.3       1 UNL1   0.1151
    14 C       -3.3998   0.2794  -2.0502   C.3       1 UNL1   0.0852
    15 C       -2.7538   2.7181  -1.5319   C.3       1 UNL1   0.0781
    16 C       -1.3301  -1.3986   0.2133   C.ar      1 UNL1   0.0142
    17 C       -0.2524  -0.8742   0.9172   C.ar      1 UNL1  -0.0485
    18 C       -1.2602  -2.7220  -0.2045   C.ar      1 UNL1  -0.0520
    19 C        0.8840  -1.6197   1.2147   C.ar      1 UNL1  -0.0243
    20 C       -0.1457  -3.4925   0.0723   C.ar      1 UNL1  -0.0427
    21 C        0.9094  -2.9364   0.7746   C.ar      1 UNL1   0.0445
    22 C        2.0295  -0.9870   1.9834   C.3       1 UNL1  -0.0010
    23 C        3.0821  -0.3405   1.1056   C.ar      1 UNL1  -0.0428
    24 C        4.1719  -1.0654   0.6518   C.ar      1 UNL1  -0.0548
    25 C        2.9825   0.9924   0.7407   C.ar      1 UNL1  -0.0548
    26 C        5.1367  -0.4787  -0.1469   C.ar      1 UNL1  -0.0197
    27 C        3.9397   1.5934  -0.0578   C.ar      1 UNL1  -0.0197
    28 C        5.0253   0.8540  -0.5060   C.ar      1 UNL1   0.1205
    29 C        5.9296   2.7756  -1.6972   C.3       1 UNL1   0.0868
    30 C        7.1167   3.0606  -2.5397   C.3       1 UNL1  -0.0307
    31 H       -4.3647   2.4773   0.4280   H         1 UNL1   0.0650
    32 H       -3.1093  -0.4689   1.9750   H         1 UNL1   0.0678
    33 H       -5.6231  -0.1526   0.5213   H         1 UNL1   0.0648
    34 H       -4.4183   0.2732  -2.4356   H         1 UNL1   0.0591
    35 H       -2.7005   0.4117  -2.8744   H         1 UNL1   0.0591
    36 H       -3.5421   3.1569  -2.1418   H         1 UNL1   0.0587
    37 H       -1.8842   2.5679  -2.1700   H         1 UNL1   0.0587
    38 H       -5.9286   0.7681  -1.2249   H         1 UNL1   0.2100
    39 H       -4.8366  -2.0162   1.7377   H         1 UNL1   0.2101
    40 H       -4.2363   1.4704   2.4475   H         1 UNL1   0.2100
    41 H       -0.2994   0.1619   1.2491   H         1 UNL1   0.0625
    42 H       -2.0922  -3.1573  -0.7560   H         1 UNL1   0.0622
    43 H       -2.1169   4.4795  -0.8742   H         1 UNL1   0.2095
    44 H       -0.0986  -4.5286  -0.2597   H         1 UNL1   0.0632
    45 H        1.6244  -0.2328   2.6564   H         1 UNL1   0.0362
    46 H        2.5057  -1.7526   2.5941   H         1 UNL1   0.0362
    47 H        4.2705  -2.1141   0.9283   H         1 UNL1   0.0622
    48 H        2.1337   1.5789   1.0892   H         1 UNL1   0.0622
    49 H        5.9856  -1.0659  -0.4940   H         1 UNL1   0.0654
    50 H        3.8255   2.6433  -0.3236   H         1 UNL1   0.0654
    51 H        5.9207   3.4238  -0.8222   H         1 UNL1   0.0694
    52 H        5.0138   2.9614  -2.2564   H         1 UNL1   0.0694
    53 H        7.1140   4.0976  -2.8723   H         1 UNL1   0.0262
    54 H        7.1267   2.4216  -3.4215   H         1 UNL1   0.0262
    55 H        8.0362   2.8852  -1.9832   H         1 UNL1   0.0262
@<TRIPOS>BOND
     1     1    21    1
     2     2     9    1
     3     2    10    1
     4     3    10    1
     5     3    14    1
     6     4    11    1
     7     4    38    1
     8     5    12    1
     9     5    39    1
    10     6    13    1
    11     6    40    1
    12     7    15    1
    13     7    43    1
    14     8    28    1
    15     8    29    1
    16     9    11    1
    17     9    14    1
    18     9    15    1
    19    10    12    1
    20    10    16    1
    21    11    13    1
    22    11    31    1
    23    12    13    1
    24    12    32    1
    25    13    33    1
    26    14    34    1
    27    14    35    1
    28    15    36    1
    29    15    37    1
    30    16    17   ar
    31    16    18   ar
    32    17    19   ar
    33    17    41    1
    34    18    20   ar
    35    18    42    1
    36    19    21   ar
    37    19    22    1
    38    20    21   ar
    39    20    44    1
    40    22    23    1
    41    22    45    1
    42    22    46    1
    43    23    24   ar
    44    23    25   ar
    45    24    26   ar
    46    24    47    1
    47    25    27   ar
    48    25    48    1
    49    26    28   ar
    50    26    49    1
    51    27    28   ar
    52    27    50    1
    53    29    30    1
    54    29    51    1
    55    29    52    1
    56    30    53    1
    57    30    54    1
    58    30    55    1
@<TRIPOS>SUBSTRUCTURE
     1 UNL1        1 GROUP             0 ****  ****    0  
@<TRIPOS>MOLECULE
(+)-camphoric_acid
    30    30     1     0     0
SMALL
NO_CHARGES
****
Generated from the CSD

@<TRIPOS>ATOM
     1 C1      -0.9808  -2.0436   0.7560   C.2       1 RES1   0.0000
     2 C2      -0.3981  -0.9603  -0.1502   C.3       1 RES1   0.0000
     3 C3      -1.4295  -0.3279  -1.1098   C.3       1 RES1   0.0000
     4 C4      -0.7488   0.9588  -1.5879   C.3       1 RES1   0.0000
     5 C5      -0.0196   1.4755  -0.3340   C.3       1 RES1   0.0000
     6 C6       1.2410   2.2849  -0.5939   C.2       1 RES1   0.0000
     7 C7       0.1286   0.2733   0.6487   C.3       1 RES1   0.0000
     8 C8      -0.7564   0.5448   1.8939   C.3       1 RES1   0.0000
     9 C9       1.5670   0.0921   1.1765   C.3       1 RES1   0.0000
    10 C10      0.6958  -1.6738  -0.9767   C.3       1 RES1   0.0000
    11 O11     -0.3722  -2.6661   1.5939   O.2       1 RES1   0.0000
    12 O12     -2.2807  -2.2994   0.5266   O.3       1 RES1   0.0000
    13 O13      1.6086   3.2449   0.0412   O.2       1 RES1   0.0000
    14 O14      1.9812   1.8036  -1.6088   O.3       1 RES1   0.0000
    15 H15     -1.7088  -0.9818  -1.9346   H         1 RES1   0.0000
    16 H16     -2.3399  -0.0477  -0.5821   H         1 RES1   0.0000
    17 H17     -1.4623   1.6787  -1.9862   H         1 RES1   0.0000
    18 H18     -0.0627   0.7155  -2.3978   H         1 RES1   0.0000
    19 H19     -0.6939   2.2014   0.1180   H         1 RES1   0.0000
    20 H20     -0.6616  -0.2353   2.6478   H         1 RES1   0.0000
    21 H21     -0.4713   1.4741   2.3849   H         1 RES1   0.0000
    22 H22     -1.8125   0.6253   1.6409   H         1 RES1   0.0000
    23 H23      1.8769   0.9421   1.7827   H         1 RES1   0.0000
    24 H24      1.6456  -0.7914   1.8083   H         1 RES1   0.0000
    25 H25      2.3038  -0.0143   0.3817   H         1 RES1   0.0000
    26 H26      1.2433  -0.9937  -1.6276   H         1 RES1   0.0000
    27 H27      1.4319  -2.1728  -0.3481   H         1 RES1   0.0000
    28 H28      0.2612  -2.4440  -1.6121   H         1 RES1   0.0000
    29 H29     -2.5557  -3.0347   1.1347   H         1 RES1   0.0000
    30 H30      2.8055   2.3536  -1.6730   H         1 RES1   0.0000
@<TRIPOS>BOND
     1     1     2    1
     2     1    11    2
     3     1    12    1
     4     2     3    1
     5     2     7    1
     6     2    10    1
     7     3     4    1
     8     3    15    1
     9     3    16    1
    10     4     5    1
    11     4    17    1
    12     4    18    1
    13     5     6    1
    14     5     7    1
    15     5    19    1
    16     6    13    2
    17     6    14    1
    18     7     8    1
    19     7     9    1
    20     8    20    1
    21     8    21    1
    22     8    22    1
    23     9    23    1
    24     9    24    1
    25     9    25    1
    26    10    26    1
    27    10    27    1
    28    10    28    1
    29    12    29    1
    30    14    30    1
@<TRIPOS>SUBSTRUCTURE
     1 RES1        1 GROUP             0 ****  ****    0  
@<TRIPOS>MOLECULE
(-)-camphorsulfonic_acid
    31    32     1     0     0
SMALL
NO_CHARGES
****
Generated from the CSD

@<TRIPOS>ATOM
     1 C1       1.6132   0.2963   0.7285   C.3       1 RES1   0.0000
     2 C2       0.6529   1.0706  -0.1956   C.3       1 RES1   0.0000
     3 C3       1.5224   1.4384  -1.4141   C.3       1 RES1   0.0000
     4 C4      -0.0501   2.2697   0.4928   C.3       1 RES1   0.0000
     5 C5      -1.0001   2.8009  -0.6015   C.3       1 RES1   0.0000
     6 C6      -1.4658   1.4914  -1.2838   C.3       1 RES1   0.0000
     7 C7      -0.6862   0.3668  -0.5286   C.3       1 RES1   0.0000
     8 C8      -0.7283  -0.9902  -1.2567   C.3       1 RES1   0.0000
     9 S9      -0.0394  -2.5759  -0.8315   S.o2      1 RES1   0.0000
    10 O10      1.2740  -2.5343  -1.6379   O.3       1 RES1   0.0000
    11 O11     -0.6795  -3.5850  -1.5874   O.2       1 RES1   0.0000
    12 O12      0.2452  -2.7603   0.5405   O.2       1 RES1   0.0000
    13 C13     -1.3587   0.3339   0.8411   C.2       1 RES1   0.0000
    14 O14     -2.1062  -0.5166   1.2673   O.2       1 RES1   0.0000
    15 C15     -0.9222   1.5909   1.5636   C.3       1 RES1   0.0000
    16 H        2.0793  -0.5289   0.1921   H         1 RES1   0.0000
    17 H        2.4111   0.9540   1.0703   H         1 RES1   0.0000
    18 H        1.1441  -0.1296   1.6142   H         1 RES1   0.0000
    19 H        1.9089   0.5359  -1.8853   H         1 RES1   0.0000
    20 H        1.0091   2.0067  -2.1884   H         1 RES1   0.0000
    21 H        2.3757   2.0348  -1.0947   H         1 RES1   0.0000
    22 H        0.6073   3.0328   0.9068   H         1 RES1   0.0000
    23 H       -0.4796   3.4505  -1.3037   H         1 RES1   0.0000
    24 H       -1.8205   3.3875  -0.1908   H         1 RES1   0.0000
    25 H       -1.2051   1.4841  -2.3411   H         1 RES1   0.0000
    26 H       -2.5436   1.3402  -1.2456   H         1 RES1   0.0000
    27 H       -1.7799  -1.2440  -1.3817   H         1 RES1   0.0000
    28 H       -0.3369  -0.8401  -2.2618   H         1 RES1   0.0000
    29 H        0.8565  -3.1366  -2.3079   H         1 RES1   0.0000
    30 H       -0.3722   1.3169   2.4627   H         1 RES1   0.0000
    31 H       -1.7834   2.1754   1.8839   H         1 RES1   0.0000
@<TRIPOS>BOND
     1     1     2    1
     2     2     3    1
     3     2     4    1
     4     4     5    1
     5     5     6    1
     6     6     7    1
     7     7     2    1
     8     7     8    1
     9     8     9    1
    10     9    10    1
    11     9    11    2
    12     9    12    2
    13     7    13    1
    14    13    14    2
    15    13    15    1
    16    15     4    1
    17     1    16    1
    18     1    17    1
    19     1    18    1
    20     3    19    1
    21     3    20    1
    22     3    21    1
    23     4    22    1
    24     5    23    1
    25     5    24    1
    26     6    25    1
    27     6    26    1
    28     8    27    1
    29     8    28    1
    30    10    29    1
    31    15    30    1
    32    15    31    1
@<TRIPOS>SUBSTRUCTURE
     1 RES1        1 GROUP             0 ****  ****    0  
@<TRIPOS>MOLECULE
7405
    16    16     1     0     0
SMALL
USER_CHARGES
****
Generated from the CSD

@<TRIPOS>ATOM
     1 O       -2.6950   0.7781  -0.1784   O.2       1 UNL1  -0.2758
     2 O        2.6693  -0.3956  -0.1723   O.3       1 UNL1  -0.4793
     3 OXT      1.4235   1.4791  -0.5324   O.2       1 UNL1  -0.2489
     4 N       -0.6095   0.5377   0.8584   N.am      1 UNL1  -0.3023
     5 CA       0.5210  -0.3427   0.7694   C.3       1 UNL1   0.1206
     6 C       -0.0322  -1.5721   0.0739   C.3       1 UNL1  -0.0159
     7 C       -1.1951  -1.0410  -0.7636   C.3       1 UNL1   0.0262
     8 C       -1.6378   0.1900  -0.0109   C.2       1 UNL1   0.2137
     9 C        1.5557   0.3666  -0.0442   C.2       1 UNL1   0.3253
    10 HA       0.9042  -0.5397   1.7695   H         1 UNL1   0.0614
    11 H       -0.4228  -2.2640   0.8186   H         1 UNL1   0.0293
    12 H        0.6922  -2.1141  -0.5323   H         1 UNL1   0.0293
    13 H       -2.0046  -1.7657  -0.8380   H         1 UNL1   0.0359
    14 H       -0.8659  -0.7439  -1.7582   H         1 UNL1   0.0359
    15 H       -0.6441   1.3535   1.4613   H         1 UNL1   0.1495
    16 H        3.3689   0.0576  -0.7120   H         1 UNL1   0.2951
@<TRIPOS>BOND
     1     1     8    2
     2     2     9    1
     3     2    16    1
     4     3     9    2
     5     4     5    1
     6     4     8   am
     7     4    15    1
     8     5     6    1
     9     5     9    1
    10     5    10    1
    11     6     7    1
    12     6    11    1
    13     6    12    1
    14     7     8    1
    15     7    13    1
    16     7    14    1
@<TRIPOS>SUBSTRUCTURE
     1 UNL1        1 GROUP             0 ****  ****    0  
@<TRIPOS>MOLECULE
D-pantothenol
    33    32     1     0     0
SMALL
NO_CHARGES
****
Generated from the CSD

@<TRIPOS>ATOM
     1 C1      -0.1974  -2.1233  -1.0860   C.3       1 RES1   0.0000
     2 C2       1.9493  -0.8924  -0.7659   C.3       1 RES1   0.0000
     3 C3       0.0443   0.2807  -1.9187   C.3       1 RES1   0.0000
     4 C4       0.7424  -1.0792  -1.7138   C.3       1 RES1   0.0000
     5 C5       1.2799  -1.6131  -3.0600   C.3       1 RES1   0.0000
     6 O6      -1.4801  -2.0667  -1.6802   O.3       1 RES1   0.0000
     7 O7      -0.8494   0.2202  -3.0181   O.3       1 RES1   0.0000
     8 C8      -0.7471   2.0040   1.4015   C.3       1 RES1   0.0000
     9 C9      -0.7750   0.7053  -0.7128   C.2       1 RES1   0.0000
    10 C10     -0.8567   1.4930   3.8830   C.3       1 RES1   0.0000
    11 O11     -0.4215   0.5880   4.8779   O.3       1 RES1   0.0000
    12 O12     -1.8834   0.2579  -0.5378   O.2       1 RES1   0.0000
    13 N13     -0.1497   1.5742   0.1354   N.am      1 RES1   0.0000
    14 C14     -0.3139   1.0540   2.5267   C.3       1 RES1   0.0000
    15 H15      0.1889  -3.1339  -1.2100   H         1 RES1   0.0000
    16 H16     -0.3425  -1.9531  -0.0202   H         1 RES1   0.0000
    17 H17      1.6447  -0.5112   0.2077   H         1 RES1   0.0000
    18 H18      2.6752  -0.1924  -1.1771   H         1 RES1   0.0000
    19 H19      2.4667  -1.8349  -0.5927   H         1 RES1   0.0000
    20 H20      0.7690   1.0552  -2.1654   H         1 RES1   0.0000
    21 H21      0.4755  -1.8822  -3.7430   H         1 RES1   0.0000
    22 H22      1.9054  -0.8720  -3.5554   H         1 RES1   0.0000
    23 H23      1.8853  -2.5078  -2.9222   H         1 RES1   0.0000
    24 H24     -2.0432  -1.4383  -1.1566   H         1 RES1   0.0000
    25 H25     -1.6065  -0.3692  -2.7624   H         1 RES1   0.0000
    26 H26     -1.8324   2.0548   1.3273   H         1 RES1   0.0000
    27 H27     -0.3900   3.0108   1.6133   H         1 RES1   0.0000
    28 H28     -1.9456   1.4969   3.8960   H         1 RES1   0.0000
    29 H29     -0.4918   2.4814   4.1583   H         1 RES1   0.0000
    30 H30     -0.7877   0.8625   5.7591   H         1 RES1   0.0000
    31 H31      0.8001   1.8596  -0.0805   H         1 RES1   0.0000
    32 H32     -0.6663   0.0479   2.3044   H         1 RES1   0.0000
    33 H33      0.7736   1.0152   2.5680   H         1 RES1   0.0000
@<TRIPOS>BOND
     1     4     1    1
     2     1     6    1
     3     1    15    1
     4     1    16    1
     5     2     4    1
     6     2    17    1
     7     2    18    1
     8     2    19    1
     9     4     3    1
    10     3     7    1
    11     3     9    1
    12     3    20    1
    13     4     5    1
    14     5    21    1
    15     5    22    1
    16     5    23    1
    17     6    24    1
    18     7    25    1
    19    13     8    1
    20     8    14    1
    21     8    26    1
    22     8    27    1
    23     9    12    2
    24     9    13   am
    25    10    11    1
    26    14    10    1
    27    10    28    1
    28    10    29    1
    29    11    30    1
    30    13    31    1
    31    14    32    1
    32    14    33    1
@<TRIPOS>SUBSTRUCTURE
     1 RES1        1 GROUP             0 ****  ****    0  
@<TRIPOS>MOLECULE
EDTA
    36    35     1     0     0
SMALL
NO_CHARGES
****
Generated from the CSD

@<TRIPOS>ATOM
     1 C1      -1.8574  -2.3286   1.6549   C.3       1 RES1   0.0000
     2 O2      -3.6066  -2.9589   0.1443   O.3       1 RES1   0.0000
     3 C3      -0.3881  -0.6131   0.8182   C.3       1 RES1   0.0000
     4 C4       0.1796   0.1330  -0.4103   C.3       1 RES1   0.0000
     5 C5      -2.9838  -3.2906   1.2966   C.2       1 RES1   0.0000
     6 O6      -3.2954  -4.2371   1.9845   O.2       1 RES1   0.0000
     7 N7      -1.2255  -1.7584   0.4731   N.3       1 RES1   0.0000
     8 N8       0.6740   1.4701  -0.0905   N.3       1 RES1   0.0000
     9 C9       0.8682   2.2540  -1.3096   C.3       1 RES1   0.0000
    10 C10      1.1791   3.7052  -0.9856   C.2       1 RES1   0.0000
    11 O11      0.4186   4.5019  -0.4890   O.2       1 RES1   0.0000
    12 O12      2.4602   4.0141  -1.2562   O.3       1 RES1   0.0000
    13 C13      1.8856   1.4377   0.7256   C.3       1 RES1   0.0000
    14 C14      1.9437   2.6415   1.6509   C.2       1 RES1   0.0000
    15 O15      2.7412   3.5472   1.6010   O.2       1 RES1   0.0000
    16 O16      0.9632   2.6031   2.5722   O.3       1 RES1   0.0000
    17 C17     -0.5073  -2.7639  -0.3036   C.3       1 RES1   0.0000
    18 C18     -0.8000  -2.5651  -1.7798   C.2       1 RES1   0.0000
    19 O19     -1.8883  -2.3261  -2.2468   O.2       1 RES1   0.0000
    20 O20      0.3006  -2.6806  -2.5418   O.3       1 RES1   0.0000
    21 H21     -2.3290  -1.5506   2.2534   H         1 RES1   0.0000
    22 H22     -1.1248  -2.8312   2.2847   H         1 RES1   0.0000
    23 H24     -0.9848   0.1101   1.3721   H         1 RES1   0.0000
    24 H25      0.4086  -0.9390   1.4852   H         1 RES1   0.0000
    25 H26      0.9655  -0.4477  -0.8911   H         1 RES1   0.0000
    26 H27     -0.6415   0.2157  -1.1208   H         1 RES1   0.0000
    27 H28      1.6348   1.8162  -1.9472   H         1 RES1   0.0000
    28 H29     -0.0498   2.2815  -1.8948   H         1 RES1   0.0000
    29 H30      2.6520   4.9082  -0.8691   H         1 RES1   0.0000
    30 H31      1.9244   0.5703   1.3829   H         1 RES1   0.0000
    31 H32      2.7845   1.3777   0.1137   H         1 RES1   0.0000
    32 H33      1.0163   3.4319   3.1165   H         1 RES1   0.0000
    33 H34      0.5584  -2.7731  -0.0797   H         1 RES1   0.0000
    34 H35     -0.8646  -3.7706  -0.0919   H         1 RES1   0.0000
    35 H36      0.0349  -2.5579  -3.4907   H         1 RES1   0.0000
    36 H       -2.9505  -2.9680  -0.6010   H         1 RES1   0.0000
@<TRIPOS>BOND
     1     5     1    1
     2     1     7    1
     3     1    21    1
     4     1    22    1
     5     2     5    1
     6     3     4    1
     7     7     3    1
     8     3    23    1
     9     3    24    1
    10     4     8    1
    11     4    25    1
    12     4    26    1
    13     5     6    2
    14     7    17    1
    15     8     9    1
    16     8    13    1
    17     9    10    1
    18     9    27    1
    19     9    28    1
    20    10    11    2
    21    10    12    1
    22    12    29    1
    23    13    14    1
    24    13    30    1
    25    13    31    1
    26    14    15    2
    27    14    16    1
    28    16    32    1
    29    17    18    1
    30    17    33    1
    31    17    34    1
    32    18    19    2
    33    18    20    1
    34    20    35    1
    35     2    36    1
@<TRIPOS>SUBSTRUCTURE
     1 RES1        1 GROUP             0 ****  ****    0  
@<TRIPOS>MOLECULE
L-arginine
    26    25     1     0     0
SMALL
NO_CHARGES
****
Generated from the CSD

@<TRIPOS>ATOM
     1 C1      -1.7021   2.9732  -1.3182   C.2       1 RES1   0.0000
     2 N2       0.6905   3.2280  -1.6538   N.3       1 RES1   0.0000
     3 C3      -0.3802   2.2395  -1.4438   C.3       1 RES1   0.0000
     4 C4      -0.0894   1.3887  -0.1917   C.3       1 RES1   0.0000
     5 C5       0.1509  -0.0913  -0.5321   C.3       1 RES1   0.0000
     6 C6       0.3994  -0.9443   0.7206   C.3       1 RES1   0.0000
     7 N7       0.6038  -2.3579   0.3432   N.pl3     1 RES1   0.0000
     8 C8       0.7654  -3.3898   1.2549   C.2       1 RES1   0.0000
     9 N9       0.9268  -4.6238   0.8482   N.2       1 RES1   0.0000
    10 N10      0.7626  -3.0982   2.6068   N.pl3     1 RES1   0.0000
    11 O11     -1.8677   4.0676  -0.8351   O.2       1 RES1   0.0000
    12 O12     -2.7311   2.2390  -1.7801   O.3       1 RES1   0.0000
    13 H13      1.6037   2.7931  -1.5687   H         1 RES1   0.0000
    14 H14      0.6627   3.9388  -0.9298   H         1 RES1   0.0000
    15 H15     -0.4138   1.6158  -2.3359   H         1 RES1   0.0000
    16 H16      0.7774   1.7797   0.3390   H         1 RES1   0.0000
    17 H17     -0.9252   1.4553   0.5032   H         1 RES1   0.0000
    18 H18     -0.7188  -0.4833  -1.0574   H         1 RES1   0.0000
    19 H19      1.0058  -0.1756  -1.2014   H         1 RES1   0.0000
    20 H20      1.2819  -0.5824   1.2461   H         1 RES1   0.0000
    21 H21     -0.4568  -0.8709   1.3896   H         1 RES1   0.0000
    22 H22      0.6173  -2.6150  -0.6386   H         1 RES1   0.0000
    23 H23      1.0354  -5.2574   1.6337   H         1 RES1   0.0000
    24 H24      0.8845  -3.8339   3.2953   H         1 RES1   0.0000
    25 H25      0.6407  -2.1447   2.9327   H         1 RES1   0.0000
    26 H26     -3.5609   2.7689  -1.6510   H         1 RES1   0.0000
@<TRIPOS>BOND
     1     1     3    1
     2     1    11    2
     3     1    12    1
     4     2     3    1
     5     2    13    1
     6     2    14    1
     7     3     4    1
     8     3    15    1
     9     4     5    1
    10     4    16    1
    11     4    17    1
    12     5     6    1
    13     5    18    1
    14     5    19    1
    15     6     7    1
    16     6    20    1
    17     6    21    1
    18     7     8    1
    19     7    22    1
    20     8     9    2
    21     8    10    1
    22     9    23    1
    23    10    24    1
    24    10    25    1
    25    12    26    1
@<TRIPOS>SUBSTRUCTURE
     1 RES1        1 GROUP             0 ****  ****    0  
@<TRIPOS>MOLECULE
L-glutamic_acid
    19    18     1     0     0
SMALL
NO_CHARGES
****
Generated from the CSD

@<TRIPOS>ATOM
     1 C1      -1.7924   0.2078  -0.8238   C.2       1 RES1   0.0000
     2 N2      -2.8372  -1.9606  -0.8238   N.3       1 RES1   0.0000
     3 C3      -3.0993  -0.5467  -0.8238   C.3       1 RES1   0.0000
     4 C4      -3.8969  -0.1790   0.4204   C.3       1 RES1   0.0000
     5 O5      -7.1111   1.3028   1.1306   O.2       1 RES1   0.0000
     6 O6      -5.5093   0.5644   2.4553   O.3       1 RES1   0.0000
     7 C7      -5.2283   0.4348   0.0077   C.3       1 RES1   0.0000
     8 C8      -6.0186   0.7992   1.2405   C.2       1 RES1   0.0000
     9 O9      -0.7463  -0.3962  -0.8238   O.2       1 RES1   0.0000
    10 O10     -1.7924   1.5458  -0.8238   O.3       1 RES1   0.0000
    11 H11     -3.7165  -2.4676  -0.8238   H         1 RES1   0.0000
    12 H12     -2.3929  -2.2223  -1.6981   H         1 RES1   0.0000
    13 H13     -3.6702  -0.2835  -1.7130   H         1 RES1   0.0000
    14 H14     -4.0787  -1.0748   1.0123   H         1 RES1   0.0000
    15 H15     -3.3338   0.5406   1.0129   H         1 RES1   0.0000
    16 H16     -5.0465   1.3307  -0.5842   H         1 RES1   0.0000
    17 H17     -5.7914  -0.2848  -0.5848   H         1 RES1   0.0000
    18 H18     -6.1911   0.8788   3.1052   H         1 RES1   0.0000
    19 H19     -0.8384   1.8212  -0.8238   H         1 RES1   0.0000
@<TRIPOS>BOND
     1     1     3    1
     2     1     9    2
     3     1    10    1
     4     3     2    1
     5     2    11    1
     6     2    12    1
     7     3     4    1
     8     3    13    1
     9     4     7    1
    10     4    14    1
    11     4    15    1
    12     8     5    2
    13     8     6    1
    14     6    18    1
    15     7     8    1
    16     7    16    1
    17     7    17    1
    18    10    19    1
@<TRIPOS>SUBSTRUCTURE
     1 RES1        1 GROUP             0 ****  ****    0  
@<TRIPOS>MOLECULE
L-glutamine
    20    19     1     0     0
SMALL
NO_CHARGES
****
Generated from the CSD

@<TRIPOS>ATOM
     1 C1       2.1256  -0.2186  -0.2060   C.2       1 RES1   0.0000
     2 N2       1.3056  -1.8367   1.4232   N.3       1 RES1   0.0000
     3 C3       0.9921  -1.1579   0.1548   C.3       1 RES1   0.0000
     4 C4      -0.3632  -0.4402   0.2639   C.3       1 RES1   0.0000
     5 C5      -0.8024   0.2045  -1.0601   C.3       1 RES1   0.0000
     6 C6      -2.1737   0.8493  -0.9602   C.2       1 RES1   0.0000
     7 O7      -3.1522   0.4653  -1.5513   O.2       1 RES1   0.0000
     8 N8      -2.2385   1.9333  -0.1401   N.am      1 RES1   0.0000
     9 O9       2.6826  -0.1303  -1.2736   O.2       1 RES1   0.0000
    10 O10      2.4727   0.5576   0.8371   O.3       1 RES1   0.0000
    11 H11      0.5585  -2.4725   1.6837   H         1 RES1   0.0000
    12 H12      1.3620  -1.1641   2.1812   H         1 RES1   0.0000
    13 H13      0.9347  -1.9206  -0.6203   H         1 RES1   0.0000
    14 H14     -1.1205  -1.1600   0.5709   H         1 RES1   0.0000
    15 H15     -0.3087   0.3162   1.0454   H         1 RES1   0.0000
    16 H16     -0.0898   0.9662  -1.3731   H         1 RES1   0.0000
    17 H17     -0.8320  -0.5526  -1.8423   H         1 RES1   0.0000
    18 H18     -3.1344   2.4010  -0.0460   H         1 RES1   0.0000
    19 H19     -1.4185   2.2646   0.3579   H         1 RES1   0.0000
    20 H20      3.2322   1.1299   0.5513   H         1 RES1   0.0000
@<TRIPOS>BOND
     1     1     3    1
     2     1     9    2
     3     1    10    1
     4     2     3    1
     5     2    11    1
     6     2    12    1
     7     3     4    1
     8     3    13    1
     9     4     5    1
    10     4    14    1
    11     4    15    1
    12     5     6    1
    13     5    16    1
    14     5    17    1
    15     6     7    2
    16     6     8   am
    17     8    18    1
    18     8    19    1
    19    10    20    1
@<TRIPOS>SUBSTRUCTURE
     1 RES1        1 GROUP             0 ****  ****    0  
@<TRIPOS>MOLECULE
L-glutathione
    37    36     1     0     0
SMALL
NO_CHARGES
****
Generated from the CSD

@<TRIPOS>ATOM
     1 O1      -0.8224  -3.8053  -1.6825   O.2       1 RES1   0.0000
     2 C2      -0.5892  -2.6253  -1.5777   C.2       1 RES1   0.0000
     3 N3      -1.6257  -1.7405  -1.4601   N.am      1 RES1   0.0000
     4 C4      -1.5253  -0.2804  -1.4344   C.3       1 RES1   0.0000
     5 C5      -2.9298   0.2531  -1.6492   C.2       1 RES1   0.0000
     6 O6      -2.9653   1.5933  -1.7274   O.3       1 RES1   0.0000
     7 O7      -3.9188  -0.4357  -1.7382   O.2       1 RES1   0.0000
     8 C8       0.8326  -2.0566  -1.5958   C.3       1 RES1   0.0000
     9 C9       1.9253  -3.1451  -1.6671   C.3       1 RES1   0.0000
    10 S10      2.0527  -3.9994  -0.0603   S.3       1 RES1   0.0000
    11 N11      1.0891  -1.1785  -0.4456   N.am      1 RES1   0.0000
    12 C12      1.7314   0.0258  -0.5559   C.2       1 RES1   0.0000
    13 C13      1.9624   0.7323   0.7709   C.3       1 RES1   0.0000
    14 C14      3.2056   1.6373   0.7728   C.3       1 RES1   0.0000
    15 C15      3.4080   2.3920   2.0987   C.3       1 RES1   0.0000
    16 N16      3.4730   1.4567   3.2332   N.3       1 RES1   0.0000
    17 C17      4.6555   3.2565   2.1005   C.2       1 RES1   0.0000
    18 O18      4.8393   3.8384   3.3011   O.3       1 RES1   0.0000
    19 O19      5.4225   3.4450   1.1870   O.2       1 RES1   0.0000
    20 O20      2.0782   0.4834  -1.6182   O.2       1 RES1   0.0000
    21 H21     -2.5597  -2.1376  -1.4461   H         1 RES1   0.0000
    22 H22     -1.1759   0.0599  -0.4607   H         1 RES1   0.0000
    23 H23     -0.8860   0.0858  -2.2364   H         1 RES1   0.0000
    24 H24     -3.9056   1.8773  -1.8730   H         1 RES1   0.0000
    25 H25      0.8813  -1.4953  -2.5277   H         1 RES1   0.0000
    26 H26      1.7184  -3.8513  -2.4699   H         1 RES1   0.0000
    27 H27      2.8830  -2.6796  -1.8954   H         1 RES1   0.0000
    28 H28      3.0252  -4.8533  -0.4259   H         1 RES1   0.0000
    29 H29      0.8576  -1.5221   0.4810   H         1 RES1   0.0000
    30 H30      2.0640  -0.0223   1.5495   H         1 RES1   0.0000
    31 H31      1.0726   1.3209   0.9895   H         1 RES1   0.0000
    32 H32      3.1231   2.3646  -0.0336   H         1 RES1   0.0000
    33 H33      4.0836   1.0251   0.5724   H         1 RES1   0.0000
    34 H34      2.5608   3.0561   2.2632   H         1 RES1   0.0000
    35 H35      3.6730   1.9580   4.0928   H         1 RES1   0.0000
    36 H36      2.5732   1.0148   3.3923   H         1 RES1   0.0000
    37 H37      5.6663   4.3859   3.2521   H         1 RES1   0.0000
@<TRIPOS>BOND
     1     1     2    2
     2     2     3   am
     3     2     8    1
     4     3     4    1
     5     3    21    1
     6     4     5    1
     7     4    22    1
     8     4    23    1
     9     5     6    1
    10     5     7    2
    11     6    24    1
    12     8     9    1
    13     8    11    1
    14     8    25    1
    15     9    10    1
    16     9    26    1
    17     9    27    1
    18    10    28    1
    19    11    12   am
    20    11    29    1
    21    12    13    1
    22    12    20    2
    23    13    14    1
    24    13    30    1
    25    13    31    1
    26    14    15    1
    27    14    32    1
    28    14    33    1
    29    15    16    1
    30    15    17    1
    31    15    34    1
    32    16    35    1
    33    16    36    1
    34    17    18    1
    35    17    19    2
    36    18    37    1
@<TRIPOS>SUBSTRUCTURE
     1 RES1        1 GROUP             0 ****  ****    0  
@<TRIPOS>MOLECULE
L-leucine
    22    21     1     0     0
SMALL
NO_CHARGES
****
Generated from the CSD

@<TRIPOS>ATOM
     1 C1      -0.2974  -0.5479   1.6026   C.3       1 RES1   0.0000
     2 C2       0.7960   0.4690   1.2602   C.3       1 RES1   0.0000
     3 C3       2.1149  -0.2671   0.9883   C.3       1 RES1   0.0000
     4 C4       0.4044   1.5003   0.1755   C.3       1 RES1   0.0000
     5 C5      -0.0342   1.0806  -1.2436   C.3       1 RES1   0.0000
     6 N6       0.9954   0.3139  -2.0033   N.3       1 RES1   0.0000
     7 C7      -1.4542   0.4429  -1.2871   C.2       1 RES1   0.0000
     8 O8      -1.6046  -0.1752  -2.4992   O.3       1 RES1   0.0000
     9 O9      -2.3407   0.5113  -0.4806   O.2       1 RES1   0.0000
    10 H        0.0059  -1.1616   2.4495   H         1 RES1   0.0000
    11 H       -1.2337  -0.0624   1.8739   H         1 RES1   0.0000
    12 H       -0.4976  -1.2171   0.7671   H         1 RES1   0.0000
    13 H        0.9601   1.0643   2.1572   H         1 RES1   0.0000
    14 H        2.0148  -0.9980   0.1873   H         1 RES1   0.0000
    15 H        2.4283  -0.8095   1.8790   H         1 RES1   0.0000
    16 H        2.9192   0.4186   0.7258   H         1 RES1   0.0000
    17 H        1.2500   2.1748   0.0493   H         1 RES1   0.0000
    18 H       -0.3973   2.1174   0.5784   H         1 RES1   0.0000
    19 H       -0.1863   2.0076  -1.7945   H         1 RES1   0.0000
    20 H        1.8389   0.8728  -2.0830   H         1 RES1   0.0000
    21 H        1.2691  -0.5090  -1.4760   H         1 RES1   0.0000
    22 H       -0.7052  -0.1841  -2.9199   H         1 RES1   0.0000
@<TRIPOS>BOND
     1     1     2    1
     2     2     3    1
     3     2     4    1
     4     4     5    1
     5     5     6    1
     6     5     7    1
     7     7     8    1
     8     7     9    2
     9     1    10    1
    10     1    11    1
    11     1    12    1
    12     2    13    1
    13     3    14    1
    14     3    15    1
    15     3    16    1
    16     4    17    1
    17     4    18    1
    18     5    19    1
    19     6    20    1
    20     6    21    1
    21     8    22    1
@<TRIPOS>SUBSTRUCTURE
     1 RES1        1 GROUP             0 ****  ****    0  
@<TRIPOS>MOLECULE
L-mandelic_acid
    19    19     1     0     0
SMALL
NO_CHARGES
****
Generated from the CSD

@<TRIPOS>ATOM
     1 C1      -1.3862   1.3479   1.5082   C.2       1 RES1   0.0000
     2 C2       0.0660   1.2294   1.0678   C.3       1 RES1   0.0000
     3 O3       0.5472   2.3877   0.3912   O.3       1 RES1   0.0000
     4 C4       0.2782   0.0375   0.1664   C.ar      1 RES1   0.0000
     5 C5       1.0778  -1.0407   0.5618   C.ar      1 RES1   0.0000
     6 C6       1.2864  -2.1269  -0.2907   C.ar      1 RES1   0.0000
     7 C7       0.6962  -2.1460  -1.5553   C.ar      1 RES1   0.0000
     8 C8      -0.0995  -1.0740  -1.9623   C.ar      1 RES1   0.0000
     9 C9      -0.3022   0.0106  -1.1064   C.ar      1 RES1   0.0000
    10 O10     -1.9475   0.5972   2.2704   O.2       1 RES1   0.0000
    11 O11     -2.0273   2.3923   0.9536   O.3       1 RES1   0.0000
    12 H12      0.6627   1.1359   1.9740   H         1 RES1   0.0000
    13 H13      1.2522   2.1037  -0.2478   H         1 RES1   0.0000
    14 H14      1.5520  -1.0393   1.5422   H         1 RES1   0.0000
    15 H15      1.9138  -2.9576   0.0292   H         1 RES1   0.0000
    16 H16      0.8598  -2.9908  -2.2227   H         1 RES1   0.0000
    17 H17     -0.5587  -1.0824  -2.9497   H         1 RES1   0.0000
    18 H18     -0.9202   0.8432  -1.4393   H         1 RES1   0.0000
    19 H19     -2.9639   2.3755   1.2830   H         1 RES1   0.0000
@<TRIPOS>BOND
     1     1     2    1
     2     1    10    2
     3     1    11    1
     4     2     3    1
     5     2     4    1
     6     2    12    1
     7     3    13    1
     8     4     5   ar
     9     4     9   ar
    10     5     6   ar
    11     5    14    1
    12     6     7   ar
    13     6    15    1
    14     7     8   ar
    15     7    16    1
    16     8     9   ar
    17     8    17    1
    18     9    18    1
    19    11    19    1
@<TRIPOS>SUBSTRUCTURE
     1 RES1        1 GROUP             0 ****  ****    0  
@<TRIPOS>MOLECULE
L-methionine
    20    19     1     0     0
SMALL
NO_CHARGES
****
Generated from the CSD

@<TRIPOS>ATOM
     1 C1       1.8579   0.2111  -1.2128   C.2       1 RES1   0.0000
     2 N2       2.1396  -2.0358  -0.3396   N.3       1 RES1   0.0000
     3 C3       1.1390  -1.0064  -0.6640   C.3       1 RES1   0.0000
     4 C4       0.2358  -0.7503   0.5558   C.3       1 RES1   0.0000
     5 C5      -0.8953   0.2482   0.2559   C.3       1 RES1   0.0000
     6 S6      -1.9178   0.4533   1.7524   S.3       1 RES1   0.0000
     7 C7      -3.1129   1.6463   1.0875   C.3       1 RES1   0.0000
     8 O8       2.0866   0.4286  -2.3785   O.2       1 RES1   0.0000
     9 O9       2.2883   1.0421  -0.2463   O.3       1 RES1   0.0000
    10 H10      1.6940  -2.8657   0.0383   H         1 RES1   0.0000
    11 H11      2.6138  -2.3504  -1.1800   H         1 RES1   0.0000
    12 H12      0.5249  -1.4040  -1.4707   H         1 RES1   0.0000
    13 H13      0.8431  -0.3985   1.3885   H         1 RES1   0.0000
    14 H14     -0.1975  -1.7008   0.8637   H         1 RES1   0.0000
    15 H15     -1.5012  -0.1253  -0.5683   H         1 RES1   0.0000
    16 H16     -0.4790   1.2074  -0.0482   H         1 RES1   0.0000
    17 H17     -3.8335   1.8986   1.8640   H         1 RES1   0.0000
    18 H18     -3.6428   1.2123   0.2409   H         1 RES1   0.0000
    19 H19     -2.6015   2.5542   0.7712   H         1 RES1   0.0000
    20 H20      2.8026   1.7710  -0.6825   H         1 RES1   0.0000
@<TRIPOS>BOND
     1     1     3    1
     2     1     8    2
     3     1     9    1
     4     2     3    1
     5     2    10    1
     6     2    11    1
     7     3     4    1
     8     3    12    1
     9     4     5    1
    10     4    13    1
    11     4    14    1
    12     5     6    1
    13     5    15    1
    14     5    16    1
    15     6     7    1
    16     7    17    1
    17     7    18    1
    18     7    19    1
    19     9    20    1
@<TRIPOS>SUBSTRUCTURE
     1 RES1        1 GROUP             0 ****  ****    0  
@<TRIPOS>MOLECULE
L-phenylalanine
    23    23     1     0     0
SMALL
NO_CHARGES
****
Generated from the CSD

@<TRIPOS>ATOM
     1 C1       2.6749   1.1747  -1.1317   C.2       1 RES1   0.0000
     2 N2       1.8561  -0.9381  -0.2515   N.3       1 RES1   0.0000
     3 C3       1.4390   0.3534  -0.8183   C.3       1 RES1   0.0000
     4 C4       0.5066   1.0586   0.1788   C.3       1 RES1   0.0000
     5 C5      -0.7230   0.2124   0.4347   C.ar      1 RES1   0.0000
     6 C6      -0.7631  -0.6606   1.4575   C.ar      1 RES1   0.0000
     7 C7      -1.8514  -1.4152   1.6763   C.ar      1 RES1   0.0000
     8 C8      -2.9186  -1.3040   0.8709   C.ar      1 RES1   0.0000
     9 C9      -2.8917  -0.4372  -0.1527   C.ar      1 RES1   0.0000
    10 C10     -1.7994   0.3126  -0.3660   C.ar      1 RES1   0.0000
    11 O11      3.3178   1.8222  -0.3411   O.2       1 RES1   0.0000
    12 O12      2.9994   1.1306  -2.4372   O.3       1 RES1   0.0000
    13 H13      1.0395  -1.4980  -0.0279   H         1 RES1   0.0000
    14 H14      2.3280  -0.8015   0.6367   H         1 RES1   0.0000
    15 H15      0.8937   0.1603  -1.7409   H         1 RES1   0.0000
    16 H16      0.2148   2.0322  -0.2123   H         1 RES1   0.0000
    17 H17      1.0290   1.2513   1.1147   H         1 RES1   0.0000
    18 H18      0.0954  -0.7648   2.1193   H         1 RES1   0.0000
    19 H19     -1.8687  -2.1190   2.5071   H         1 RES1   0.0000
    20 H20     -3.8027  -1.9152   1.0460   H         1 RES1   0.0000
    21 H21     -3.7542  -0.3440  -0.8109   H         1 RES1   0.0000
    22 H22     -1.7888   1.0086  -1.2035   H         1 RES1   0.0000
    23 H23      3.8117   1.6871  -2.5653   H         1 RES1   0.0000
@<TRIPOS>BOND
     1     1     3    1
     2     1    11    2
     3     1    12    1
     4     2     3    1
     5     2    13    1
     6     2    14    1
     7     3     4    1
     8     3    15    1
     9     4     5    1
    10     4    16    1
    11     4    17    1
    12     5     6   ar
    13     5    10   ar
    14     6     7   ar
    15     6    18    1
    16     7     8   ar
    17     7    19    1
    18     8     9   ar
    19     8    20    1
    20     9    10   ar
    21     9    21    1
    22    10    22    1
    23    12    23    1
@<TRIPOS>SUBSTRUCTURE
     1 RES1        1 GROUP             0 ****  ****    0  
@<TRIPOS>MOLECULE
L-proline
    17    17     1     0     0
SMALL
NO_CHARGES
****
Generated from the CSD

@<TRIPOS>ATOM
     1 C1      -1.1667   1.5565  -0.4039   C.2       1 RES1   0.0000
     2 N2       1.0037   0.7431   0.3500   N.3       1 RES1   0.0000
     3 C3      -0.0207   0.6032  -0.6861   C.3       1 RES1   0.0000
     4 C4      -0.4218  -0.8842  -0.7123   C.3       1 RES1   0.0000
     5 C5       0.1971  -1.4615   0.5678   C.3       1 RES1   0.0000
     6 C6       1.4515  -0.5958   0.7217   C.3       1 RES1   0.0000
     7 O7      -1.4397   2.5490  -1.0349   O.2       1 RES1   0.0000
     8 O8      -1.8630   1.2086   0.6944   O.3       1 RES1   0.0000
     9 H9       1.7844   1.3021   0.0210   H         1 RES1   0.0000
    10 H10      0.4164   0.8866  -1.6424   H         1 RES1   0.0000
    11 H11      0.0268  -1.3706  -1.5772   H         1 RES1   0.0000
    12 H12     -1.4972  -1.0477  -0.7641   H         1 RES1   0.0000
    13 H13     -0.4703  -1.2988   1.4128   H         1 RES1   0.0000
    14 H14      0.4189  -2.5251   0.4940   H         1 RES1   0.0000
    15 H15      2.2213  -0.9214   0.0236   H         1 RES1   0.0000
    16 H16      1.8608  -0.6138   1.7307   H         1 RES1   0.0000
    17 H17     -2.5578   1.9027   0.8409   H         1 RES1   0.0000
@<TRIPOS>BOND
     1     1     3    1
     2     1     7    2
     3     1     8    1
     4     2     3    1
     5     2     6    1
     6     2     9    1
     7     3     4    1
     8     3    10    1
     9     4     5    1
    10     4    11    1
    11     4    12    1
    12     5     6    1
    13     5    13    1
    14     5    14    1
    15     6    15    1
    16     6    16    1
    17     8    17    1
@<TRIPOS>SUBSTRUCTURE
     1 RES1        1 GROUP             0 ****  ****    0  
@<TRIPOS>MOLECULE
L-tryptophan
    27    28     1     0     0
SMALL
NO_CHARGES
****
Generated from the CSD

@<TRIPOS>ATOM
     1 C1       1.5139  -1.8218  -0.6228   C.3       1 RES1   0.0000
     2 N2       1.9136  -3.2376  -0.5675   N.3       1 RES1   0.0000
     3 C3       0.7503  -1.5720  -1.9087   C.2       1 RES1   0.0000
     4 C4       0.4659   0.0092   0.7707   C.2       1 RES1   0.0000
     5 C5      -0.7032   0.6681   0.7249   C.ar      1 RES1   0.0000
     6 C6      -1.9672   0.2601   0.5541   C.ar      1 RES1   0.0000
     7 C7      -2.9383   1.1904   0.5594   C.ar      1 RES1   0.0000
     8 O8      -0.3399  -1.0682  -2.0323   O.2       1 RES1   0.0000
     9 C9      -1.3818   2.9013   0.9033   C.ar      1 RES1   0.0000
    10 O10      1.4523  -1.9946  -2.9773   O.3       1 RES1   0.0000
    11 C11      0.7217  -1.4666   0.6457   C.3       1 RES1   0.0000
    12 C12     -2.6511   2.4936   0.7331   C.ar      1 RES1   0.0000
    13 C13     -0.4232   1.9682   0.8949   C.ar      1 RES1   0.0000
    14 N14      0.8312   2.0872   1.0339   N.pl3     1 RES1   0.0000
    15 C15      1.3993   0.9541   0.9682   C.2       1 RES1   0.0000
    16 H16      2.4262  -1.2285  -0.6632   H         1 RES1   0.0000
    17 H17      2.4882  -3.4176   0.2496   H         1 RES1   0.0000
    18 H18      2.4996  -3.4711  -1.3626   H         1 RES1   0.0000
    19 H19     -2.2108  -0.7919   0.4132   H         1 RES1   0.0000
    20 H20     -3.9741   0.8836   0.4221   H         1 RES1   0.0000
    21 H21     -1.1388   3.9533   1.0456   H         1 RES1   0.0000
    22 H22      0.9080  -1.8153  -3.7882   H         1 RES1   0.0000
    23 H23     -0.2106  -2.0290   0.6678   H         1 RES1   0.0000
    24 H24      1.2870  -1.7736   1.5244   H         1 RES1   0.0000
    25 H25     -3.4553   3.2278   0.7365   H         1 RES1   0.0000
    26 H26      1.3091   2.9708   1.1794   H         1 RES1   0.0000
    27 H27      2.4786   0.8498   1.0692   H         1 RES1   0.0000
@<TRIPOS>BOND
     1     1     2    1
     2     1     3    1
     3     1    11    1
     4     1    16    1
     5     2    17    1
     6     2    18    1
     7     3     8    2
     8     3    10    1
     9     4     5    1
    10    11     4    1
    11    15     4    2
    12     5     6   ar
    13    13     5   ar
    14     6     7   ar
    15     6    19    1
    16     7    12   ar
    17     7    20    1
    18    12     9   ar
    19     9    13   ar
    20     9    21    1
    21    10    22    1
    22    11    23    1
    23    11    24    1
    24    12    25    1
    25    13    14    1
    26    14    15    1
    27    14    26    1
    28    15    27    1
@<TRIPOS>SUBSTRUCTURE
     1 RES1        1 GROUP             0 ****  ****    0  
@<TRIPOS>MOLECULE
L-tyrosine
    24    24     1     0     0
SMALL
NO_CHARGES
****
Generated from the CSD

@<TRIPOS>ATOM
     1 C1       1.2382   0.7997  -1.6507   C.2       1 RES1   0.0000
     2 N2       2.2709   1.9565   0.2090   N.3       1 RES1   0.0000
     3 C3       1.2828   0.9215  -0.1390   C.3       1 RES1   0.0000
     4 C4      -0.0422   1.2406   0.5772   C.3       1 RES1   0.0000
     5 C5      -1.0451   0.1055   0.5501   C.ar      1 RES1   0.0000
     6 C6      -0.8030  -1.0399   1.2109   C.ar      1 RES1   0.0000
     7 C7      -1.6869  -2.0494   1.1931   C.ar      1 RES1   0.0000
     8 C8      -2.8444  -1.9516   0.5181   C.ar      1 RES1   0.0000
     9 O9      -3.7448  -2.9708   0.4947   O.3       1 RES1   0.0000
    10 C10     -3.0875  -0.8027  -0.1343   C.ar      1 RES1   0.0000
    11 C11     -2.2078   0.2101  -0.1172   C.ar      1 RES1   0.0000
    12 O12      2.1989   0.8661  -2.3803   O.2       1 RES1   0.0000
    13 O13      0.0091   0.5627  -2.1376   O.3       1 RES1   0.0000
    14 H14      2.5228   1.8983   1.1905   H         1 RES1   0.0000
    15 H15      3.1364   1.8035  -0.2987   H         1 RES1   0.0000
    16 H16      1.6825  -0.0243   0.2238   H         1 RES1   0.0000
    17 H17     -0.4651   2.1519   0.1570   H         1 RES1   0.0000
    18 H18      0.1593   1.4650   1.6236   H         1 RES1   0.0000
    19 H19      0.1224  -1.1554   1.7732   H         1 RES1   0.0000
    20 H20     -1.4640  -2.9660   1.7373   H         1 RES1   0.0000
    21 H21     -4.5252  -2.6991  -0.0560   H         1 RES1   0.0000
    22 H22     -4.0193  -0.6920  -0.6870   H         1 RES1   0.0000
    23 H23     -2.4463   1.1246  -0.6582   H         1 RES1   0.0000
    24 H24      0.0834   0.4761  -3.1240   H         1 RES1   0.0000
@<TRIPOS>BOND
     1     1     3    1
     2     1    12    2
     3     1    13    1
     4     3     2    1
     5     2    14    1
     6     2    15    1
     7     3     4    1
     8     3    16    1
     9     4     5    1
    10     4    17    1
    11     4    18    1
    12     5     6   ar
    13     5    11   ar
    14     6     7   ar
    15     6    19    1
    16     7     8   ar
    17     7    20    1
    18     8     9    1
    19     8    10   ar
    20     9    21    1
    21    10    11   ar
    22    10    22    1
    23    11    23    1
    24    13    24    1
@<TRIPOS>SUBSTRUCTURE
     1 RES1        1 GROUP             0 ****  ****    0  
@<TRIPOS>MOLECULE
acesulfame
    15    15     1     0     0
SMALL
NO_CHARGES
****
Generated from the CSD

@<TRIPOS>ATOM
     1 C1       2.3420  -1.4276   0.2958   C.3       1 ****   0.0000
     2 C2       1.1026  -0.8807  -0.3532   C.2       1 ****   0.0000
     3 C3       1.0055  -0.5094  -1.6501   C.2       1 ****   0.0000
     4 C4      -0.2632   0.0578  -2.1289   C.2       1 ****   0.0000
     5 O5      -0.3546   0.4425  -3.2723   O.2       1 ****   0.0000
     6 N6      -1.3068   0.1180  -1.2772   N.am      1 ****   0.0000
     7 S7      -0.8224   0.5732   0.2355   S.o2      1 ****   0.0000
     8 O8       0.0542   1.6883   0.1937   O.2       1 ****   0.0000
     9 O9      -1.9356   0.5440   1.1086   O.2       1 ****   0.0000
    10 O10      0.0070  -0.7538   0.4598   O.3       1 ****   0.0000
    11 H        2.6672  -0.7984   1.1230   H         1 ****   0.0000
    12 H        3.1597  -1.4757  -0.4218   H         1 ****   0.0000
    13 H        2.1783  -2.4336   0.6792   H         1 ****   0.0000
    14 H        1.8408  -0.5856  -2.3447   H         1 ****   0.0000
    15 H       -1.9230   0.8513  -1.6129   H         1 ****   0.0000
@<TRIPOS>BOND
     1     1     2    1
     2     2     3    2
     3     3     4    1
     4     4     5    2
     5     4     6   am
     6     6     7    1
     7     7     8    2
     8     7     9    2
     9     7    10    1
    10    10     2    1
    11     1    11    1
    12     1    12    1
    13     1    13    1
    14     3    14    1
    15     6    15    1
@<TRIPOS>SUBSTRUCTURE
     1 ****        1 GROUP             0 ****  ****    0  
@<TRIPOS>MOLECULE
alitame
    47    47     1     0     0
SMALL
NO_CHARGES
****
Generated from the CSD

@<TRIPOS>ATOM
     1 C1      -0.4463  -2.8394   0.8746   C.3       1 RES1   0.0000
     2 C2       0.3390  -1.9558  -0.1106   C.3       1 RES1   0.0000
     3 C3      -0.4764  -0.7117  -0.4273   C.2       1 RES1   0.0000
     4 O4      -1.0067  -0.5366  -1.4980   O.2       1 RES1   0.0000
     5 N5      -0.5504   0.1887   0.5973   N.am      1 RES1   0.0000
     6 C6      -1.2795   1.4522   0.4728   C.3       1 RES1   0.0000
     7 C7      -0.9580   2.4784   1.6053   C.3       1 RES1   0.0000
     8 S8      -2.7197   2.5607   2.1656   S.3       1 RES1   0.0000
     9 C9      -2.8097   1.3609   0.7597   C.3       1 RES1   0.0000
    10 C10     -3.3014  -0.0098   1.2374   C.3       1 RES1   0.0000
    11 C11     -3.6606   1.9169  -0.3884   C.3       1 RES1   0.0000
    12 C12     -0.4836   3.8353   1.0711   C.3       1 RES1   0.0000
    13 C13     -0.0538   1.9523   2.7258   C.3       1 RES1   0.0000
    14 N14      0.6651  -2.7476  -1.3038   N.am      1 RES1   0.0000
    15 C15      1.5754  -2.4696  -2.2911   C.2       1 RES1   0.0000
    16 O16      1.7643  -3.2952  -3.1523   O.2       1 RES1   0.0000
    17 C17      2.2610  -1.1032  -2.3379   C.3       1 RES1   0.0000
    18 C18      3.0836  -0.5977  -1.1438   C.3       1 RES1   0.0000
    19 C19      3.9465  -1.6808  -0.5275   C.2       1 RES1   0.0000
    20 O20      3.7552  -2.2273   0.5321   O.2       1 RES1   0.0000
    21 O21      5.0001  -1.9845  -1.3064   O.3       1 RES1   0.0000
    22 N22      1.3353  -0.0709  -2.8329   N.3       1 RES1   0.0000
    23 H23      0.1168  -3.7355   1.1313   H         1 RES1   0.0000
    24 H24     -1.3943  -3.1560   0.4423   H         1 RES1   0.0000
    25 H25     -0.6638  -2.3153   1.8041   H         1 RES1   0.0000
    26 H26      1.2533  -1.6725   0.4088   H         1 RES1   0.0000
    27 H27     -0.1625  -0.0757   1.4972   H         1 RES1   0.0000
    28 H28     -1.0751   1.8959  -0.5005   H         1 RES1   0.0000
    29 H29     -4.3356   0.0435   1.5742   H         1 RES1   0.0000
    30 H30     -2.7062  -0.3985   2.0624   H         1 RES1   0.0000
    31 H31     -3.2628  -0.7357   0.4266   H         1 RES1   0.0000
    32 H32     -3.5943   1.2640  -1.2575   H         1 RES1   0.0000
    33 H33     -3.3369   2.9094  -0.6983   H         1 RES1   0.0000
    34 H34     -4.7093   1.9859  -0.1031   H         1 RES1   0.0000
    35 H35     -0.4247   4.5736   1.8695   H         1 RES1   0.0000
    36 H36     -1.1472   4.2321   0.3042   H         1 RES1   0.0000
    37 H37      0.5085   3.7409   0.6320   H         1 RES1   0.0000
    38 H38     -0.4211   1.0210   3.1543   H         1 RES1   0.0000
    39 H39      0.9527   1.7742   2.3501   H         1 RES1   0.0000
    40 H40      0.0219   2.6740   3.5378   H         1 RES1   0.0000
    41 H41      0.1805  -3.6298  -1.4344   H         1 RES1   0.0000
    42 H42      2.9930  -1.2164  -3.1362   H         1 RES1   0.0000
    43 H43      2.4498  -0.1429  -0.3840   H         1 RES1   0.0000
    44 H44      3.7339   0.2157  -1.4622   H         1 RES1   0.0000
    45 H45      5.5179  -2.7064  -0.8628   H         1 RES1   0.0000
    46 H46      1.2545  -0.1253  -3.8432   H         1 RES1   0.0000
    47 H47      0.3874  -0.2255  -2.5046   H         1 RES1   0.0000
@<TRIPOS>BOND
     1     2     1    1
     2     1    23    1
     3     1    24    1
     4     1    25    1
     5     2     3    1
     6     2    14    1
     7     2    26    1
     8     3     4    2
     9     3     5   am
    10     5     6    1
    11     5    27    1
    12     6     7    1
    13     6     9    1
    14     6    28    1
    15     7     8    1
    16     7    12    1
    17     7    13    1
    18     8     9    1
    19     9    10    1
    20     9    11    1
    21    10    29    1
    22    10    30    1
    23    10    31    1
    24    11    32    1
    25    11    33    1
    26    11    34    1
    27    12    35    1
    28    12    36    1
    29    12    37    1
    30    13    38    1
    31    13    39    1
    32    13    40    1
    33    14    15   am
    34    14    41    1
    35    15    16    2
    36    15    17    1
    37    17    18    1
    38    17    22    1
    39    17    42    1
    40    18    19    1
    41    18    43    1
    42    18    44    1
    43    19    20    2
    44    19    21    1
    45    21    45    1
    46    22    46    1
    47    22    47    1
@<TRIPOS>SUBSTRUCTURE
     1 RES1        1 GROUP             0 ****  ****    0  
@<TRIPOS>MOLECULE
biotin
    32    33     1     0     0
SMALL
NO_CHARGES
****
Generated from the CSD

@<TRIPOS>ATOM
     1 O1       4.9124   0.9534  -3.3544   O.3       1 RES1   0.0000
     2 C2       3.7641   0.2962  -3.1073   C.2       1 RES1   0.0000
     3 C3       3.1496   0.7252  -1.7880   C.3       1 RES1   0.0000
     4 C4       2.0629  -0.2413  -1.2907   C.3       1 RES1   0.0000
     5 C5       1.4735   0.1991   0.0599   C.3       1 RES1   0.0000
     6 C6       0.4691  -0.8298   0.6105   C.3       1 RES1   0.0000
     7 C7      -0.1628  -0.3952   1.9475   C.3       1 RES1   0.0000
     8 C8      -1.3935   0.5230   1.8259   C.3       1 RES1   0.0000
     9 N9      -1.5108   1.2649   0.5647   N.am      1 RES1   0.0000
    10 C10     -2.6457   1.0090  -0.1393   C.2       1 RES1   0.0000
    11 O11     -2.9601   1.4942  -1.1925   O.2       1 RES1   0.0000
    12 H12     -1.4136   1.2396   2.6457   H         1 RES1   0.0000
    13 C13     -2.7120  -0.3159   1.8319   C.3       1 RES1   0.0000
    14 N14     -3.3558   0.1001   0.5801   N.am      1 RES1   0.0000
    15 H15     -3.3438  -0.0302   2.6716   H         1 RES1   0.0000
    16 C16     -2.3903  -1.8140   1.8708   C.3       1 RES1   0.0000
    17 S17     -0.8326  -1.8673   2.8063   S.3       1 RES1   0.0000
    18 O18      3.3331  -0.5298  -3.8759   O.2       1 RES1   0.0000
    19 H19      5.2662   0.6336  -4.2254   H         1 RES1   0.0000
    20 H20      2.7275   1.7202  -1.9213   H         1 RES1   0.0000
    21 H21      3.9389   0.7905  -1.0405   H         1 RES1   0.0000
    22 H22      2.4939  -1.2362  -1.1893   H         1 RES1   0.0000
    23 H23      1.2620  -0.3046  -2.0259   H         1 RES1   0.0000
    24 H24      0.9974   1.1713  -0.0588   H         1 RES1   0.0000
    25 H25      2.2818   0.3270   0.7784   H         1 RES1   0.0000
    26 H26      1.0215  -1.7576   0.7517   H         1 RES1   0.0000
    27 H27     -0.3020  -1.0339  -0.1310   H         1 RES1   0.0000
    28 H28      0.6062   0.0668   2.5649   H         1 RES1   0.0000
    29 H29     -0.8253   1.9329   0.2269   H         1 RES1   0.0000
    30 H30     -4.2507  -0.2490   0.2523   H         1 RES1   0.0000
    31 H31     -3.1881  -2.3943   2.3320   H         1 RES1   0.0000
    32 H32     -2.2323  -2.1967   0.8636   H         1 RES1   0.0000
@<TRIPOS>BOND
     1     1     2    1
     2     1    19    1
     3     2     3    1
     4     2    18    2
     5     3     4    1
     6     3    20    1
     7     3    21    1
     8     4     5    1
     9     4    22    1
    10     4    23    1
    11     5     6    1
    12     5    24    1
    13     5    25    1
    14     7     6    1
    15     6    26    1
    16     6    27    1
    17     7     8    1
    18     7    17    1
    19     7    28    1
    20     8     9    1
    21     8    12    1
    22     8    13    1
    23     9    10   am
    24     9    29    1
    25    10    11    2
    26    10    14   am
    27    13    14    1
    28    13    15    1
    29    13    16    1
    30    14    30    1
    31    16    17    1
    32    16    31    1
    33    16    32    1
@<TRIPOS>SUBSTRUCTURE
     1 RES1        1 GROUP             0 ****  ****    0  
@<TRIPOS>MOLECULE
caprolactam
    19    19     1     0     0
SMALL
NO_CHARGES
****
Generated from the CSD

@<TRIPOS>ATOM
     1 O1       2.8299  -0.6011  -0.6454   O.2       1 ****   0.0000
     2 C2       1.6570  -0.6036  -0.3208   C.2       1 ****   0.0000
     3 C3       0.5398  -0.2765  -1.2935   C.3       1 ****   0.0000
     4 C4      -0.2672   0.9946  -0.9732   C.3       1 ****   0.0000
     5 C5      -1.3134   0.8391   0.1347   C.3       1 ****   0.0000
     6 C6      -0.7589   0.4013   1.4962   C.3       1 ****   0.0000
     7 C7      -0.0697  -0.9698   1.4671   C.3       1 ****   0.0000
     8 N8       1.2667  -1.0065   0.8988   N.am      1 ****   0.0000
     9 H        1.0935  -0.1329  -2.2202   H         1 ****   0.0000
    10 H       -0.1165  -1.1306  -1.4541   H         1 ****   0.0000
    11 H        0.4177   1.8056  -0.7299   H         1 ****   0.0000
    12 H       -0.7768   1.2937  -1.8880   H         1 ****   0.0000
    13 H       -2.0589   0.1137  -0.1878   H         1 ****   0.0000
    14 H       -1.8448   1.7825   0.2511   H         1 ****   0.0000
    15 H       -1.5855   0.3326   2.2018   H         1 ****   0.0000
    16 H       -0.0767   1.1546   1.8875   H         1 ****   0.0000
    17 H        0.0292  -1.3311   2.4897   H         1 ****   0.0000
    18 H       -0.7090  -1.6911   0.9602   H         1 ****   0.0000
    19 H        2.0325  -1.2103   1.5331   H         1 ****   0.0000
@<TRIPOS>BOND
     1     1     2    2
     2     2     3    1
     3     3     4    1
     4     4     5    1
     5     5     6    1
     6     6     7    1
     7     7     8    1
     8     8     2   am
     9     3     9    1
    10     3    10    1
    11     4    11    1
    12     4    12    1
    13     5    13    1
    14     5    14    1
    15     6    15    1
    16     6    16    1
    17     7    17    1
    18     7    18    1
    19     8    19    1
@<TRIPOS>SUBSTRUCTURE
     1 ****        1 GROUP             0 ****  ****    0  
@<TRIPOS>MOLECULE
capsaicin
    49    49     1     0     0
SMALL
NO_CHARGES
****
Generated from the CSD

@<TRIPOS>ATOM
     1 C1      -4.2060  -6.4766   3.4866   C.3       1 RES1   0.0000
     2 C2      -3.6502  -5.0609   3.7074   C.3       1 RES1   0.0000
     3 C3      -1.7478  -3.5107   0.6357   C.3       1 RES1   0.0000
     4 C4      -3.0339  -4.9215   5.1075   C.3       1 RES1   0.0000
     5 C5      -0.2303  -1.7956  -0.4572   C.3       1 RES1   0.0000
     6 C6      -2.6188  -4.7459   2.6473   C.2       1 RES1   0.0000
     7 C7      -2.7617  -3.7881   1.7179   C.2       1 RES1   0.0000
     8 C8      -1.2354  -2.0616   0.6764   C.3       1 RES1   0.0000
     9 C9       0.2820  -0.3461  -0.4799   C.3       1 RES1   0.0000
    10 C10      1.2398  -0.0759  -1.6305   C.2       1 RES1   0.0000
    11 N11      1.6357   1.2287  -1.7455   N.am      1 RES1   0.0000
    12 C12      2.5289   1.6756  -2.8139   C.3       1 RES1   0.0000
    13 C13      2.8388   3.1389  -2.6086   C.ar      1 RES1   0.0000
    14 C14      1.8522   4.0368  -2.4562   C.ar      1 RES1   0.0000
    15 C15      2.0505   5.3583  -2.2670   C.ar      1 RES1   0.0000
    16 O16      0.9192   6.1347  -2.1462   O.3       1 RES1   0.0000
    17 C17      0.9935   7.5368  -2.2333   C.3       1 RES1   0.0000
    18 C18      3.3332   5.7921  -2.2581   C.ar      1 RES1   0.0000
    19 O19      3.6833   7.0965  -2.0919   O.3       1 RES1   0.0000
    20 C20      4.3285   4.8992  -2.4045   C.ar      1 RES1   0.0000
    21 C21      4.1002   3.5914  -2.5767   C.ar      1 RES1   0.0000
    22 O22      1.6211  -0.9351  -2.3896   O.2       1 RES1   0.0000
    23 H23     -4.9726  -6.7172   4.2217   H         1 RES1   0.0000
    24 H24     -4.6552  -6.5717   2.4991   H         1 RES1   0.0000
    25 H25     -3.4221  -7.2280   3.5687   H         1 RES1   0.0000
    26 H26     -4.4784  -4.3580   3.6304   H         1 RES1   0.0000
    27 H27     -2.2248  -3.7081  -0.3232   H         1 RES1   0.0000
    28 H28     -0.9044  -4.1944   0.7196   H         1 RES1   0.0000
    29 H29     -2.6560  -3.9130   5.2690   H         1 RES1   0.0000
    30 H30     -3.7719  -5.1249   5.8820   H         1 RES1   0.0000
    31 H31     -2.2072  -5.6162   5.2484   H         1 RES1   0.0000
    32 H32     -0.7091  -2.0169  -1.4100   H         1 RES1   0.0000
    33 H33      0.6141  -2.4747  -0.3492   H         1 RES1   0.0000
    34 H34     -1.7201  -5.3609   2.6450   H         1 RES1   0.0000
    35 H35     -3.6645  -3.1791   1.7110   H         1 RES1   0.0000
    36 H36     -0.7611  -1.8705   1.6379   H         1 RES1   0.0000
    37 H37     -2.0750  -1.3744   0.5826   H         1 RES1   0.0000
    38 H38      0.7981  -0.1233   0.4528   H         1 RES1   0.0000
    39 H39     -0.5615   0.3362  -0.5740   H         1 RES1   0.0000
    40 H40      1.2859   1.9249  -1.0950   H         1 RES1   0.0000
    41 H41      2.0406   1.5505  -3.7792   H         1 RES1   0.0000
    42 H42      3.4364   1.0738  -2.8052   H         1 RES1   0.0000
    43 H43      0.8253   3.6762  -2.4916   H         1 RES1   0.0000
    44 H44     -0.0256   7.9207  -2.2309   H         1 RES1   0.0000
    45 H45      1.4604   7.8354  -3.1707   H         1 RES1   0.0000
    46 H46      1.4965   7.9486  -1.3597   H         1 RES1   0.0000
    47 H47      4.6726   7.1822  -2.0947   H         1 RES1   0.0000
    48 H48      5.3596   5.2490  -2.3866   H         1 RES1   0.0000
    49 H49      4.9395   2.9080  -2.6971   H         1 RES1   0.0000
@<TRIPOS>BOND
     1     1     2    1
     2     1    23    1
     3     1    24    1
     4     1    25    1
     5     2     4    1
     6     2     6    1
     7     2    26    1
     8     7     3    1
     9     3     8    1
    10     3    27    1
    11     3    28    1
    12     4    29    1
    13     4    30    1
    14     4    31    1
    15     8     5    1
    16     5     9    1
    17     5    32    1
    18     5    33    1
    19     6     7    2
    20     6    34    1
    21     7    35    1
    22     8    36    1
    23     8    37    1
    24     9    10    1
    25     9    38    1
    26     9    39    1
    27    10    11   am
    28    10    22    2
    29    11    12    1
    30    11    40    1
    31    12    13    1
    32    12    41    1
    33    12    42    1
    34    13    14   ar
    35    13    21   ar
    36    14    15   ar
    37    14    43    1
    38    15    16    1
    39    15    18   ar
    40    16    17    1
    41    17    44    1
    42    17    45    1
    43    17    46    1
    44    18    19    1
    45    18    20   ar
    46    19    47    1
    47    20    21   ar
    48    20    48    1
    49    21    49    1
@<TRIPOS>SUBSTRUCTURE
     1 RES1        1 GROUP             0 ****  ****    0  
@<TRIPOS>MOLECULE
cholic_acid
    69    72     1     0     0
SMALL
NO_CHARGES
****
Generated from the CSD

@<TRIPOS>ATOM
     1 C1      -0.8119   0.2537  -2.2176   C.3       1 RES1   0.0000
     2 C2      -1.7690  -0.8158  -2.7271   C.3       1 RES1   0.0000
     3 C3      -2.4533  -1.2151  -1.5495   C.3       1 RES1   0.0000
     4 O4      -3.7152  -1.7442  -1.8547   O.3       1 RES1   0.0000
     5 C5      -1.5367  -2.2846  -0.9701   C.3       1 RES1   0.0000
     6 C6      -0.1008  -1.7769  -0.9701   C.3       1 RES1   0.0000
     7 H7       0.4126  -2.1400  -0.0810   H         1 RES1   0.0000
     8 C8       0.6171  -2.2846  -2.2137   C.3       1 RES1   0.0000
     9 C9       2.1584  -1.7637  -2.1612   C.3       1 RES1   0.0000
    10 O10      2.4424  -0.9796  -3.2882   O.3       1 RES1   0.0000
    11 C11      2.2914  -0.9296  -0.8939   C.3       1 RES1   0.0000
    12 C12      3.7213  -0.4201  -0.7693   C.3       1 RES1   0.0000
    13 C13      4.6723  -1.6028  -0.6417   C.3       1 RES1   0.0000
    14 C14      5.8490  -1.0459   0.1486   C.3       1 RES1   0.0000
    15 C15      5.3833   0.5500   0.6652   C.3       1 RES1   0.0000
    16 C16      5.8227   0.8573   2.0907   C.3       1 RES1   0.0000
    17 C17      7.3434   0.9136   2.1515   C.3       1 RES1   0.0000
    18 C18      7.7827   2.2940   2.6217   C.3       1 RES1   0.0000
    19 C19      9.2895   2.3498   2.6819   C.2       1 RES1   0.0000
    20 C20      5.2467   2.2002   2.5203   C.3       1 RES1   0.0000
    21 C21      3.8815   0.3253   0.5491   C.3       1 RES1   0.0000
    22 C22      3.2999  -0.4324   1.7353   C.3       1 RES1   0.0000
    23 C23      3.1723   1.6703   0.4612   C.3       1 RES1   0.0000
    24 O24      3.6219   2.4222  -0.6333   O.3       1 RES1   0.0000
    25 C25      1.5497   1.1506   0.2498   C.3       1 RES1   0.0000
    26 C26      1.3351   0.2537  -0.9622   C.3       1 RES1   0.0000
    27 C27     -0.1008  -0.2539  -0.9701   C.3       1 RES1   0.0000
    28 C28     -0.8256   0.2538   0.2694   C.3       1 RES1   0.0000
    29 O29      9.8427   3.3643   3.0338   O.2       1 RES1   0.0000
    30 O30     10.0126   1.2755   2.3455   O.3       1 RES1   0.0000
    31 H31      1.5244   0.8214  -1.8720   H         1 RES1   0.0000
    32 H32      2.0481  -1.5436  -0.0280   H         1 RES1   0.0000
    33 H33      3.9308   0.2023  -1.6380   H         1 RES1   0.0000
    34 H34     -0.0761   0.4785  -2.9883   H         1 RES1   0.0000
    35 H35     -1.3714   1.1559  -1.9749   H         1 RES1   0.0000
    36 H36     -2.4604  -0.4048  -3.4613   H         1 RES1   0.0000
    37 H37     -1.2655  -1.6388  -3.2322   H         1 RES1   0.0000
    38 H38     -2.6427  -0.3922  -0.8619   H         1 RES1   0.0000
    39 H39     -4.3082  -2.0657  -1.1260   H         1 RES1   0.0000
    40 H40     -1.8419  -2.5094   0.0508   H         1 RES1   0.0000
    41 H41     -1.6029  -3.1868  -1.5763   H         1 RES1   0.0000
    42 H42      0.5969  -3.3733  -2.2316   H         1 RES1   0.0000
    43 H43      0.1246  -1.9114  -3.1104   H         1 RES1   0.0000
    44 H44      2.8562  -2.5997  -2.1570   H         1 RES1   0.0000
    45 H45      3.3465  -0.5855  -3.4037   H         1 RES1   0.0000
    46 H46      4.9943  -1.9477  -1.6232   H         1 RES1   0.0000
    47 H47      4.2106  -2.4617  -0.1569   H         1 RES1   0.0000
    48 H48      6.0538  -1.6761   1.0128   H         1 RES1   0.0000
    49 H49      6.7532  -1.0164  -0.4576   H         1 RES1   0.0000
    50 H50      5.8030   1.3914   0.1159   H         1 RES1   0.0000
    51 H51      5.4615   0.0771   2.7591   H         1 RES1   0.0000
    52 H52      7.7064   0.1605   2.8493   H         1 RES1   0.0000
    53 H53      7.7536   0.7201   1.1614   H         1 RES1   0.0000
    54 H54      7.4197   3.0471   1.9238   H         1 RES1   0.0000
    55 H55      7.3726   2.4876   3.6118   H         1 RES1   0.0000
    56 H56      5.5603   2.4209   3.5395   H         1 RES1   0.0000
    57 H57      4.1594   2.1589   2.4765   H         1 RES1   0.0000
    58 H58      5.6084   2.9806   1.8524   H         1 RES1   0.0000
    59 H59      4.0944  -0.6654   2.4427   H         1 RES1   0.0000
    60 H60      2.5475   0.1837   2.2254   H         1 RES1   0.0000
    61 H61      2.8422  -1.3568   1.3863   H         1 RES1   0.0000
    62 H62      3.3326   2.3261   1.3157   H         1 RES1   0.0000
    63 H63      3.2407   3.3224  -0.8076   H         1 RES1   0.0000
    64 H64      0.9207   2.0325   0.1375   H         1 RES1   0.0000
    65 H65      1.2936   0.5585   1.1271   H         1 RES1   0.0000
    66 H66     -0.1448   0.8589   0.8663   H         1 RES1   0.0000
    67 H67     -1.1704  -0.5936   0.8602   H         1 RES1   0.0000
    68 H68     -1.6795   0.8587  -0.0319   H         1 RES1   0.0000
    69 H69     11.0041   1.3122   2.3850   H         1 RES1   0.0000
@<TRIPOS>BOND
     1     1     2    1
     2     1    27    1
     3     1    34    1
     4     1    35    1
     5     2     3    1
     6     2    36    1
     7     2    37    1
     8     3     4    1
     9     3     5    1
    10     3    38    1
    11     4    39    1
    12     5     6    1
    13     5    40    1
    14     5    41    1
    15     6     7    1
    16     6     8    1
    17     6    27    1
    18     8     9    1
    19     8    42    1
    20     8    43    1
    21     9    10    1
    22     9    11    1
    23     9    44    1
    24    10    45    1
    25    11    12    1
    26    11    26    1
    27    11    32    1
    28    12    13    1
    29    12    21    1
    30    12    33    1
    31    13    14    1
    32    13    46    1
    33    13    47    1
    34    15    14    1
    35    14    48    1
    36    14    49    1
    37    15    16    1
    38    15    21    1
    39    15    50    1
    40    16    17    1
    41    16    20    1
    42    16    51    1
    43    17    18    1
    44    17    52    1
    45    17    53    1
    46    18    19    1
    47    18    54    1
    48    18    55    1
    49    19    29    2
    50    19    30    1
    51    20    56    1
    52    20    57    1
    53    20    58    1
    54    21    22    1
    55    21    23    1
    56    22    59    1
    57    22    60    1
    58    22    61    1
    59    23    24    1
    60    23    25    1
    61    23    62    1
    62    24    63    1
    63    25    26    1
    64    25    64    1
    65    25    65    1
    66    26    27    1
    67    26    31    1
    68    27    28    1
    69    28    66    1
    70    28    67    1
    71    28    68    1
    72    30    69    1
@<TRIPOS>SUBSTRUCTURE
     1 RES1        1 GROUP             0 ****  ****    0  
@<TRIPOS>MOLECULE
folic_acid
    51    53     1     0     0
SMALL
NO_CHARGES
****
Generated from the CSD

@<TRIPOS>ATOM
     1 C1       6.3561 -12.8814  -3.7465   C.2       1 RES1   0.0000
     2 C2       4.8973 -12.4733  -3.8392   C.3       1 RES1   0.0000
     3 C3       3.9378 -13.6705  -3.7452   C.3       1 RES1   0.0000
     4 C4       2.4439 -13.2850  -3.6790   C.3       1 RES1   0.0000
     5 C5       2.0447 -12.5105  -4.9291   C.2       1 RES1   0.0000
     6 O6       1.6910 -13.0005  -5.9751   O.2       1 RES1   0.0000
     7 O7       2.1166 -11.1789  -4.7531   O.3       1 RES1   0.0000
     8 N8       1.6704 -14.5335  -3.5786   N.am      1 RES1   0.0000
     9 C9       0.5857 -14.8047  -2.7884   C.2       1 RES1   0.0000
    10 O10      0.3743 -15.9858  -2.6322   O.2       1 RES1   0.0000
    11 C11     -0.1376 -13.9068  -2.0591   C.ar      1 RES1   0.0000
    12 C12     -0.8296 -14.3263  -0.9804   C.ar      1 RES1   0.0000
    13 C13     -1.5636 -13.4790  -0.2407   C.ar      1 RES1   0.0000
    14 C14     -0.2496 -12.6064  -2.3827   C.ar      1 RES1   0.0000
    15 C15     -0.9838 -11.7551  -1.6484   C.ar      1 RES1   0.0000
    16 C16     -1.6514 -12.1774  -0.5617   C.ar      1 RES1   0.0000
    17 N17     -2.3713 -11.4283   0.1727   N.pl3     1 RES1   0.0000
    18 C18     -2.6161  -9.9838  -0.0264   C.3       1 RES1   0.0000
    19 C19     -3.5749  -9.4321   1.0044   C.ar      1 RES1   0.0000
    20 N20     -4.3768 -10.2266   1.5759   N.ar      1 RES1   0.0000
    21 C21     -5.1917  -9.7723   2.4353   C.ar      1 RES1   0.0000
    22 C22     -6.0583 -10.6146   3.0596   C.2       1 RES1   0.0000
    23 O23     -6.1473 -11.8069   2.8871   O.2       1 RES1   0.0000
    24 N24     -6.8713  -9.9921   3.9468   N.am      1 RES1   0.0000
    25 C25     -6.8527  -8.6745   4.2095   C.2       1 RES1   0.0000
    26 N26     -7.6813  -8.2479   5.0650   N.pl3     1 RES1   0.0000
    27 N27     -6.0181  -7.9519   3.5926   N.2       1 RES1   0.0000
    28 C28     -5.2182  -8.4556   2.7447   C.ar      1 RES1   0.0000
    29 N29     -4.4151  -7.6557   2.1735   N.ar      1 RES1   0.0000
    30 C30     -3.6098  -8.1287   1.3229   C.ar      1 RES1   0.0000
    31 O31      7.1423 -12.5479  -2.8925   O.2       1 RES1   0.0000
    32 O32      6.7214 -13.6659  -4.7766   O.3       1 RES1   0.0000
    33 H33      4.6882 -11.7748  -3.0303   H         1 RES1   0.0000
    34 H34      4.7593 -11.9375  -4.7772   H         1 RES1   0.0000
    35 H35      4.0944 -14.3252  -4.6012   H         1 RES1   0.0000
    36 H36      4.1901 -14.2472  -2.8566   H         1 RES1   0.0000
    37 H37      2.3209 -12.6800  -2.7819   H         1 RES1   0.0000
    38 H38      1.8324 -10.7333  -5.5938   H         1 RES1   0.0000
    39 H39      1.9993 -15.3354  -4.1068   H         1 RES1   0.0000
    40 H40     -0.8103 -15.3673  -0.6613   H         1 RES1   0.0000
    41 H41     -2.0957 -13.8687   0.6259   H         1 RES1   0.0000
    42 H42      0.2082 -12.1973  -3.2821   H         1 RES1   0.0000
    43 H43     -1.0375 -10.7171  -1.9734   H         1 RES1   0.0000
    44 H44     -2.8258 -11.8861   0.9563   H         1 RES1   0.0000
    45 H45     -1.6694  -9.4504   0.0459   H         1 RES1   0.0000
    46 H46     -3.0565  -9.8113  -1.0073   H         1 RES1   0.0000
    47 H47     -7.5559 -10.5325   4.4659   H         1 RES1   0.0000
    48 H48     -8.3285  -8.8773   5.5288   H         1 RES1   0.0000
    49 H49     -7.7073  -7.2604   5.2980   H         1 RES1   0.0000
    50 H50     -2.9344  -7.4215   0.8438   H         1 RES1   0.0000
    51 H51      7.6873 -13.8752  -4.6807   H         1 RES1   0.0000
@<TRIPOS>BOND
     1     1     2    1
     2     1    31    2
     3     1    32    1
     4     2     3    1
     5     2    33    1
     6     2    34    1
     7     3     4    1
     8     3    35    1
     9     3    36    1
    10     4     5    1
    11     4     8    1
    12     4    37    1
    13     5     6    2
    14     5     7    1
    15     7    38    1
    16     8     9   am
    17     8    39    1
    18     9    10    2
    19     9    11    1
    20    11    12   ar
    21    11    14   ar
    22    12    13   ar
    23    12    40    1
    24    13    16   ar
    25    13    41    1
    26    15    14   ar
    27    14    42    1
    28    16    15   ar
    29    15    43    1
    30    16    17    1
    31    17    18    1
    32    17    44    1
    33    18    19    1
    34    18    45    1
    35    18    46    1
    36    19    20   ar
    37    19    30   ar
    38    21    20   ar
    39    22    21    1
    40    28    21   ar
    41    22    23    2
    42    24    22   am
    43    25    24    1
    44    24    47    1
    45    25    26    1
    46    27    25    2
    47    26    48    1
    48    26    49    1
    49    28    27    1
    50    29    28   ar
    51    30    29   ar
    52    30    50    1
    53    32    51    1
@<TRIPOS>SUBSTRUCTURE
     1 RES1        1 GROUP             0 ****  ****    0  
@<TRIPOS>MOLECULE
hesperetin
    36    38     1     0     0
SMALL
NO_CHARGES
****
Generated from the CSD

@<TRIPOS>ATOM
     1 C1       1.6654  -0.3600  -5.2680   C.3       1 RES1   0.0000
     2 O2       0.6426  -0.5196  -4.3132   O.3       1 RES1   0.0000
     3 C3       0.8931  -0.1710  -3.0077   C.ar      1 RES1   0.0000
     4 C4       1.9969   0.4683  -2.5754   C.ar      1 RES1   0.0000
     5 C5       2.1860   0.7682  -1.2818   C.ar      1 RES1   0.0000
     6 C6       1.2817   0.4332  -0.3457   C.ar      1 RES1   0.0000
     7 C7       0.1911  -0.2204  -0.7798   C.ar      1 RES1   0.0000
     8 C8      -0.0141  -0.5232  -2.0730   C.ar      1 RES1   0.0000
     9 O9      -1.1421  -1.1871  -2.4511   O.3       1 RES1   0.0000
    10 C10      1.5205   0.7856   1.1185   C.3       1 RES1   0.0000
    11 C11      1.7752  -0.4118   2.0209   C.3       1 RES1   0.0000
    12 C12      0.4992  -1.1239   2.4308   C.2       1 RES1   0.0000
    13 O13      0.5980  -2.2923   2.7349   O.2       1 RES1   0.0000
    14 C14     -0.6585  -0.4053   2.4445   C.ar      1 RES1   0.0000
    15 C15     -1.8174  -0.9953   2.8134   C.ar      1 RES1   0.0000
    16 O16     -1.9138  -2.3041   3.1822   O.3       1 RES1   0.0000
    17 C17     -2.9427  -0.2611   2.8051   C.ar      1 RES1   0.0000
    18 C18     -2.9598   1.0304   2.4491   C.ar      1 RES1   0.0000
    19 O19     -4.1101   1.7555   2.4320   O.3       1 RES1   0.0000
    20 C20     -1.7901   1.5769   2.0911   C.ar      1 RES1   0.0000
    21 C21     -0.6267   0.9003   2.0917   C.ar      1 RES1   0.0000
    22 O22      0.4931   1.5669   1.6662   O.3       1 RES1   0.0000
    23 H23      1.3006  -0.7549  -6.2151   H         1 RES1   0.0000
    24 H24      2.5459  -0.9305  -4.9762   H         1 RES1   0.0000
    25 H25      1.8931   0.6958  -5.4072   H         1 RES1   0.0000
    26 H26      2.7784   0.7707  -3.2709   H         1 RES1   0.0000
    27 H27      3.0976   1.2918  -0.9977   H         1 RES1   0.0000
    28 H28     -0.5805  -0.5331  -0.0778   H         1 RES1   0.0000
    29 H29     -1.1181  -1.3347  -3.4328   H         1 RES1   0.0000
    30 H30      2.4071   1.4164   1.1624   H         1 RES1   0.0000
    31 H31      2.4571  -1.1043   1.5296   H         1 RES1   0.0000
    32 H32      2.2530  -0.0880   2.9444   H         1 RES1   0.0000
    33 H33     -2.8644  -2.5200   3.3712   H         1 RES1   0.0000
    34 H34     -3.8826  -0.7306   3.0914   H         1 RES1   0.0000
    35 H35     -3.9106   2.6719   2.1057   H         1 RES1   0.0000
    36 H36     -1.7871   2.6207   1.7805   H         1 RES1   0.0000
@<TRIPOS>BOND
     1     1     2    1
     2     1    23    1
     3     1    24    1
     4     1    25    1
     5     2     3    1
     6     3     4   ar
     7     3     8   ar
     8     4     5   ar
     9     4    26    1
    10     5     6   ar
    11     5    27    1
    12     6     7   ar
    13    10     6    1
    14     7     8   ar
    15     7    28    1
    16     8     9    1
    17     9    29    1
    18    10    11    1
    19    10    22    1
    20    10    30    1
    21    11    12    1
    22    11    31    1
    23    11    32    1
    24    12    13    2
    25    12    14    1
    26    14    15   ar
    27    14    21   ar
    28    15    16    1
    29    15    17   ar
    30    16    33    1
    31    17    18   ar
    32    17    34    1
    33    18    19    1
    34    18    20   ar
    35    19    35    1
    36    20    21   ar
    37    20    36    1
    38    21    22    1
@<TRIPOS>SUBSTRUCTURE
     1 RES1        1 GROUP             0 ****  ****    0  
@<TRIPOS>MOLECULE
hippuric_acid
    22    22     1     0     0
SMALL
NO_CHARGES
****
Generated from the CSD

@<TRIPOS>ATOM
     1 C1      -3.0180   3.4521   1.2233   C.2       1 RES1   0.0000
     2 C2      -3.4547   2.5271   2.3491   C.3       1 RES1   0.0000
     3 C3      -5.5547   3.6422   3.0624   C.2       1 RES1   0.0000
     4 C4      -6.9168   3.5687   3.1330   C.ar      1 RES1   0.0000
     5 C5      -7.6181   4.5950   3.6569   C.ar      1 RES1   0.0000
     6 C6      -8.9575   4.5570   3.7416   C.ar      1 RES1   0.0000
     7 C7      -9.6301   3.4847   3.3015   C.ar      1 RES1   0.0000
     8 C8      -8.9501   2.4550   2.7782   C.ar      1 RES1   0.0000
     9 C9      -7.6104   2.4977   2.6956   C.ar      1 RES1   0.0000
    10 H1      -1.5084   4.4560   0.6181   H         1 RES1   0.0000
    11 H2      -3.1682   1.5118   2.0791   H         1 RES1   0.0000
    12 H3      -2.9614   2.7757   3.2876   H         1 RES1   0.0000
    13 H4      -5.4603   1.7954   2.1433   H         1 RES1   0.0000
    14 H5      -7.1308   5.4941   4.0313   H         1 RES1   0.0000
    15 H6      -9.5024   5.3978   4.1683   H         1 RES1   0.0000
    16 H7     -10.7165   3.4502   3.3688   H         1 RES1   0.0000
    17 H8      -9.4918   1.5809   2.4198   H         1 RES1   0.0000
    18 H9      -7.1342   1.6209   2.2593   H         1 RES1   0.0000
    19 N1      -4.9129   2.5700   2.5046   N.am      1 RES1   0.0000
    20 O1      -1.7333   3.8324   1.3574   O.3       1 RES1   0.0000
    21 O2      -3.7064   3.8178   0.3007   O.2       1 RES1   0.0000
    22 O3      -4.9037   4.5843   3.4511   O.2       1 RES1   0.0000
@<TRIPOS>BOND
     1     1     2    1
     2     1    20    1
     3     1    21    2
     4     2    11    1
     5     2    12    1
     6     2    19    1
     7     3     4    1
     8     3    19   am
     9     3    22    2
    10     4     5   ar
    11     4     9   ar
    12     5     6   ar
    13     5    14    1
    14     6     7   ar
    15     6    15    1
    16     7     8   ar
    17     7    16    1
    18     8     9   ar
    19     8    17    1
    20     9    18    1
    21    10    20    1
    22    13    19    1
@<TRIPOS>SUBSTRUCTURE
     1 RES1        1 GROUP             0 A     ****    0  
@<TRIPOS>MOLECULE
hydrocinnamic_acid
    21    21     1     0     0
SMALL
NO_CHARGES
****
Generated from the CSD

@<TRIPOS>ATOM
     1 C1       2.4627  -1.1934  -7.4059   C.2       1 RES1   0.0000
     2 C2       1.6600  -0.5605  -6.3019   C.3       1 RES1   0.0000
     3 H2A      0.7191  -0.1905  -6.7065   H         1 RES1   0.0000
     4 H2B      2.2094   0.2884  -5.8977   H         1 RES1   0.0000
     5 C3       1.3713  -1.5635  -5.1752   C.3       1 RES1   0.0000
     6 H3A      2.3123  -1.9760  -4.8142   H         1 RES1   0.0000
     7 H3B      0.8946  -1.0424  -4.3463   H         1 RES1   0.0000
     8 C4       0.4720  -2.6984  -5.6340   C.ar      1 RES1   0.0000
     9 C5      -0.9082  -2.5428  -5.5603   C.ar      1 RES1   0.0000
    10 H5      -1.3291  -1.6238  -5.1552   H         1 RES1   0.0000
    11 C6      -1.7532  -3.5540  -6.0006   C.ar      1 RES1   0.0000
    12 H6      -2.8325  -3.4273  -5.9301   H         1 RES1   0.0000
    13 C7      -1.2310  -4.7176  -6.5264   C.ar      1 RES1   0.0000
    14 H7      -1.8959  -5.5028  -6.8831   H         1 RES1   0.0000
    15 C8       0.1384  -4.8846  -6.5982   C.ar      1 RES1   0.0000
    16 H8       0.5559  -5.8026  -7.0092   H         1 RES1   0.0000
    17 C9       0.9846  -3.8767  -6.1435   C.ar      1 RES1   0.0000
    18 H9       2.0633  -4.0184  -6.1904   H         1 RES1   0.0000
    19 O1       1.9763  -0.9216  -8.6207   O.3       1 RES1   0.0000
    20 H1       2.5047  -1.4084  -9.3061   H         1 RES1   0.0000
    21 O2       3.4422  -1.8714  -7.2238   O.2       1 RES1   0.0000
@<TRIPOS>BOND
     1     1     2    1
     2     1    19    1
     3     1    21    2
     4     2     3    1
     5     2     4    1
     6     2     5    1
     7     5     6    1
     8     5     7    1
     9     5     8    1
    10     8     9   ar
    11     8    17   ar
    12     9    10    1
    13     9    11   ar
    14    11    12    1
    15    11    13   ar
    16    13    14    1
    17    13    15   ar
    18    15    16    1
    19    15    17   ar
    20    17    18    1
    21    19    20    1
@<TRIPOS>SUBSTRUCTURE
     1 RES1        1 GROUP             0 A     ****    0  
@<TRIPOS>MOLECULE
lactobionic_acid
    46    46     1     0     0
SMALL
NO_CHARGES
****
Generated from the CSD

@<TRIPOS>ATOM
     1 O1      -2.5598  -0.7917  -1.5199   O.3       1 RES1   0.0000
     2 C2      -1.3545  -1.3714  -2.0061   C.3       1 RES1   0.0000
     3 C3      -0.4149  -1.8886  -0.9209   C.3       1 RES1   0.0000
     4 O4       0.7149  -2.4438  -1.6033   O.3       1 RES1   0.0000
     5 C5      -0.0846  -0.8131   0.1233   C.3       1 RES1   0.0000
     6 O6       0.1846   0.3659  -0.6442   O.3       1 RES1   0.0000
     7 C7       0.3723   1.6520  -0.0473   C.3       1 RES1   0.0000
     8 O8       0.5565   2.6489  -1.0543   O.3       1 RES1   0.0000
     9 C9      -0.6397   2.7962  -1.8335   C.3       1 RES1   0.0000
    10 C10     -0.2937   3.6833  -2.9928   C.3       1 RES1   0.0000
    11 O11      0.6723   3.1097  -3.8690   O.3       1 RES1   0.0000
    12 C12     -1.7905   3.3112  -0.9935   C.3       1 RES1   0.0000
    13 O13     -1.5409   4.6700  -0.6127   O.3       1 RES1   0.0000
    14 C14     -2.0033   2.4421   0.2348   C.3       1 RES1   0.0000
    15 O15     -2.8378   1.3040   0.0062   O.3       1 RES1   0.0000
    16 C16     -0.6846   2.1658   0.9231   C.3       1 RES1   0.0000
    17 O17     -0.7729   1.3471   2.0992   O.3       1 RES1   0.0000
    18 C18      1.0593  -1.1177   1.0693   C.3       1 RES1   0.0000
    19 O19      2.2832  -1.3953   0.3657   O.3       1 RES1   0.0000
    20 C20      0.7959  -2.1615   2.1177   C.3       1 RES1   0.0000
    21 O21      1.8556  -2.2357   3.0890   O.3       1 RES1   0.0000
    22 C22      0.6327  -3.5531   1.4990   C.2       1 RES1   0.0000
    23 O23      1.7272  -3.8068   0.7252   O.3       1 RES1   0.0000
    24 O24     -0.3021  -4.3013   1.5830   O.2       1 RES1   0.0000
    25 H       -3.2037  -1.5390  -1.4060   H         1 RES1   0.0000
    26 H       -0.8476  -0.6057  -2.5915   H         1 RES1   0.0000
    27 H       -1.5735  -2.1821  -2.6994   H         1 RES1   0.0000
    28 H       -0.9503  -2.7024  -0.4340   H         1 RES1   0.0000
    29 H        1.1266  -3.1147  -0.9979   H         1 RES1   0.0000
    30 H       -0.9875  -0.6677   0.7145   H         1 RES1   0.0000
    31 H        1.3142   1.6481   0.4992   H         1 RES1   0.0000
    32 H       -0.9241   1.8315  -2.2510   H         1 RES1   0.0000
    33 H        0.0678   4.6416  -2.6228   H         1 RES1   0.0000
    34 H       -1.1692   3.8864  -3.6078   H         1 RES1   0.0000
    35 H        1.4669   2.9465  -3.2963   H         1 RES1   0.0000
    36 H       -2.6932   3.2829  -1.6020   H         1 RES1   0.0000
    37 H       -2.4226   5.0835  -0.4187   H         1 RES1   0.0000
    38 H       -2.6017   3.0335   0.9262   H         1 RES1   0.0000
    39 H       -2.3955   0.6936  -0.6402   H         1 RES1   0.0000
    40 H       -0.2976   3.1400   1.2182   H         1 RES1   0.0000
    41 H       -1.5687   1.6728   2.5958   H         1 RES1   0.0000
    42 H        1.2247  -0.2079   1.6445   H         1 RES1   0.0000
    43 H        2.2528  -0.8101  -0.4360   H         1 RES1   0.0000
    44 H       -0.1428  -1.9545   2.6295   H         1 RES1   0.0000
    45 H        1.8314  -1.3844   3.5997   H         1 RES1   0.0000
    46 H        2.3622  -3.0528   0.8449   H         1 RES1   0.0000
@<TRIPOS>BOND
     1     1     2    1
     2     2     3    1
     3     3     4    1
     4     3     5    1
     5     5     6    1
     6     6     7    1
     7     7     8    1
     8     8     9    1
     9     9    10    1
    10    10    11    1
    11     9    12    1
    12    12    13    1
    13    12    14    1
    14    14    15    1
    15    14    16    1
    16    16     7    1
    17    16    17    1
    18     5    18    1
    19    18    19    1
    20    18    20    1
    21    20    21    1
    22    20    22    1
    23    22    23    1
    24    22    24    2
    25     1    25    1
    26     2    26    1
    27     2    27    1
    28     3    28    1
    29     4    29    1
    30     5    30    1
    31     7    31    1
    32     9    32    1
    33    10    33    1
    34    10    34    1
    35    11    35    1
    36    12    36    1
    37    13    37    1
    38    14    38    1
    39    15    39    1
    40    16    40    1
    41    17    41    1
    42    18    42    1
    43    19    43    1
    44    20    44    1
    45    21    45    1
    46    23    46    1
@<TRIPOS>SUBSTRUCTURE
     1 RES1        1 GROUP             0 ****  ****    0  
@<TRIPOS>MOLECULE
lactose
    45    46     1     0     0
SMALL
NO_CHARGES
****
Generated from the CSD

@<TRIPOS>ATOM
     1 O1      -3.0585  -3.9131   2.8750   O.3       1 RES1   0.0000
     2 C2      -3.0848  -2.5739   2.4287   C.3       1 RES1   0.0000
     3 C3      -2.1216  -2.3818   1.2611   C.3       1 RES1   0.0000
     4 O4      -1.8163  -1.0133   1.2099   O.3       1 RES1   0.0000
     5 C5      -0.9051  -0.6854   0.1850   C.3       1 RES1   0.0000
     6 O6      -0.7773   0.7180   0.2875   O.3       1 RES1   0.0000
     7 C7      -0.9146   1.4116  -0.9227   C.3       1 RES1   0.0000
     8 C8      -2.3779   1.6759  -1.2472   C.3       1 RES1   0.0000
     9 O9      -3.0974   0.4906  -1.4813   O.3       1 RES1   0.0000
    10 C10     -2.4541   2.5064  -2.5107   C.3       1 RES1   0.0000
    11 O11     -3.7902   2.9100  -2.6953   O.3       1 RES1   0.0000
    12 C12     -1.5953   3.7366  -2.4437   C.3       1 RES1   0.0000
    13 O13     -2.1459   4.6736  -1.5414   O.3       1 RES1   0.0000
    14 O14     -0.2937   3.5092  -1.9675   O.3       1 RES1   0.0000
    15 C15     -0.2167   2.7680  -0.7783   C.3       1 RES1   0.0000
    16 C16      1.2630   2.6430  -0.4258   C.3       1 RES1   0.0000
    17 O17      1.4219   2.1964   0.9066   O.3       1 RES1   0.0000
    18 C18      0.4215  -1.3491   0.4613   C.3       1 RES1   0.0000
    19 O19      1.3614  -0.9893  -0.5196   O.3       1 RES1   0.0000
    20 C20      0.2201  -2.8467   0.4146   C.3       1 RES1   0.0000
    21 O21      1.4263  -3.4784   0.7671   O.3       1 RES1   0.0000
    22 C22     -0.8706  -3.2508   1.3846   C.3       1 RES1   0.0000
    23 O23     -0.3555  -3.1714   2.6910   O.3       1 RES1   0.0000
    24 H24     -3.8026  -4.0712   3.5133   H         1 RES1   0.0000
    25 H25     -4.1095  -2.3302   2.1522   H         1 RES1   0.0000
    26 H26     -2.8026  -1.9608   3.2834   H         1 RES1   0.0000
    27 H27     -2.6329  -2.6495   0.3376   H         1 RES1   0.0000
    28 H28     -1.3153  -0.9915  -0.7762   H         1 RES1   0.0000
    29 H29     -0.4217   0.8626  -1.7237   H         1 RES1   0.0000
    30 H30     -2.8670   2.1866  -0.4190   H         1 RES1   0.0000
    31 H31     -3.9965   0.7376  -1.8228   H         1 RES1   0.0000
    32 H32     -2.1663   1.9042  -3.3712   H         1 RES1   0.0000
    33 H33     -3.9293   3.7531  -2.1894   H         1 RES1   0.0000
    34 H34     -1.5189   4.2291  -3.4120   H         1 RES1   0.0000
    35 H35     -1.4281   5.2927  -1.2455   H         1 RES1   0.0000
    36 H36     -0.6929   3.3438   0.0139   H         1 RES1   0.0000
    37 H37      1.7768   1.9397  -1.0795   H         1 RES1   0.0000
    38 H38      1.7593   3.6102  -0.4905   H         1 RES1   0.0000
    39 H39      1.0951   1.2616   0.9804   H         1 RES1   0.0000
    40 H40      0.8240  -1.0380   1.4242   H         1 RES1   0.0000
    41 H41      2.1432  -1.5961  -0.4376   H         1 RES1   0.0000
    42 H42     -0.0353  -3.1611  -0.5963   H         1 RES1   0.0000
    43 H43      1.4578  -3.5571   1.7565   H         1 RES1   0.0000
    44 H44     -1.1170  -4.2991   1.2225   H         1 RES1   0.0000
    45 H45     -1.0026  -3.5907   3.3167   H         1 RES1   0.0000
@<TRIPOS>BOND
     1     1     2    1
     2     1    24    1
     3     3     2    1
     4     2    25    1
     5     2    26    1
     6     3     4    1
     7     3    22    1
     8     3    27    1
     9     4     5    1
    10     5     6    1
    11     5    18    1
    12     5    28    1
    13     7     6    1
    14     7     8    1
    15     7    15    1
    16     7    29    1
    17     8     9    1
    18     8    10    1
    19     8    30    1
    20     9    31    1
    21    10    11    1
    22    10    12    1
    23    10    32    1
    24    11    33    1
    25    12    13    1
    26    12    14    1
    27    12    34    1
    28    13    35    1
    29    14    15    1
    30    15    16    1
    31    15    36    1
    32    16    17    1
    33    16    37    1
    34    16    38    1
    35    17    39    1
    36    18    19    1
    37    18    20    1
    38    18    40    1
    39    19    41    1
    40    20    21    1
    41    20    22    1
    42    20    42    1
    43    21    43    1
    44    22    23    1
    45    22    44    1
    46    23    45    1
@<TRIPOS>SUBSTRUCTURE
     1 RES1        1 GROUP             0 ****  ****    0  
@<TRIPOS>MOLECULE
maltitol
    47    47     1     0     0
SMALL
NO_CHARGES
****
Generated from the CSD

@<TRIPOS>ATOM
     1 O1       2.4900   0.5609   2.3354   O.3       1 RES1   0.0000
     2 C2       0.4080   0.6723   1.0643   C.3       1 RES1   0.0000
     3 O3       2.9630   3.1419   2.3502   O.3       1 RES1   0.0000
     4 C4       1.6529   2.7387   2.0033   C.3       1 RES1   0.0000
     5 C5       1.7426   1.3325   1.4327   C.3       1 RES1   0.0000
     6 O6       0.6490  -0.2612   0.0423   O.3       1 RES1   0.0000
     7 C7      -2.3311   1.3589  -2.4629   C.3       1 RES1   0.0000
     8 C8      -0.3583  -0.3105  -0.9526   C.3       1 RES1   0.0000
     9 O9      -0.0784   0.8055  -1.7717   O.3       1 RES1   0.0000
    10 C10     -0.9282   0.9324  -2.8764   C.3       1 RES1   0.0000
    11 O11     -3.0632   1.7658  -3.6027   O.3       1 RES1   0.0000
    12 C12     -0.8473  -0.3063  -3.7597   C.3       1 RES1   0.0000
    13 O13      0.4236  -0.3351  -4.3741   O.3       1 RES1   0.0000
    14 C14     -1.0273  -1.6052  -2.9930   C.3       1 RES1   0.0000
    15 C15     -0.4658   0.0702   2.1784   C.3       1 RES1   0.0000
    16 O16     -2.3801  -1.7755  -2.6423   O.3       1 RES1   0.0000
    17 C17     -0.1847  -1.5946  -1.7313   C.3       1 RES1   0.0000
    18 O18      1.1782  -1.7106  -2.0644   O.3       1 RES1   0.0000
    19 C19      0.9348  -1.8525   3.1965   C.3       1 RES1   0.0000
    20 O20     -0.3236   0.8301   3.3571   O.3       1 RES1   0.0000
    21 C21     -0.3682  -1.4072   2.5660   C.3       1 RES1   0.0000
    22 O22     -0.6768  -2.2525   1.4844   O.3       1 RES1   0.0000
    23 O23      1.2059  -1.0175   4.3048   O.3       1 RES1   0.0000
    24 H24      3.3233   1.0635   2.5330   H         1 RES1   0.0000
    25 H25     -0.1528   1.5043   0.6410   H         1 RES1   0.0000
    26 H26      2.9449   4.0519   2.7473   H         1 RES1   0.0000
    27 H27      1.0533   2.8052   2.9099   H         1 RES1   0.0000
    28 H28      1.2686   3.4505   1.2742   H         1 RES1   0.0000
    29 H29      2.3581   1.4100   0.5377   H         1 RES1   0.0000
    30 H30     -2.2988   2.2126  -1.7875   H         1 RES1   0.0000
    31 H31     -2.9051   0.5676  -1.9831   H         1 RES1   0.0000
    32 H32     -1.3474  -0.2405  -0.5024   H         1 RES1   0.0000
    33 H33     -0.5268   1.7689  -3.4466   H         1 RES1   0.0000
    34 H34     -4.0029   1.9544  -3.3429   H         1 RES1   0.0000
    35 H35     -1.5687  -0.2438  -4.5731   H         1 RES1   0.0000
    36 H36      1.1195  -0.4585  -3.6766   H         1 RES1   0.0000
    37 H37     -0.7747  -2.4587  -3.6205   H         1 RES1   0.0000
    38 H38     -1.5026   0.2095   1.8757   H         1 RES1   0.0000
    39 H39     -2.6099  -2.7416  -2.6420   H         1 RES1   0.0000
    40 H40     -0.4241  -2.4605  -1.1158   H         1 RES1   0.0000
    41 H41      1.7061  -1.5603  -1.2369   H         1 RES1   0.0000
    42 H42      0.8604  -2.8738   3.5671   H         1 RES1   0.0000
    43 H43      1.7711  -1.8037   2.5007   H         1 RES1   0.0000
    44 H44     -0.5410   0.2790   4.1540   H         1 RES1   0.0000
    45 H45     -1.1535  -1.6043   3.2943   H         1 RES1   0.0000
    46 H46     -0.8766  -3.1641   1.8238   H         1 RES1   0.0000
    47 H47      1.5872  -0.1618   3.9756   H         1 RES1   0.0000
@<TRIPOS>BOND
     1     5     1    1
     2     1    24    1
     3     5     2    1
     4     2     6    1
     5     2    15    1
     6     2    25    1
     7     3     4    1
     8     3    26    1
     9     4     5    1
    10     4    27    1
    11     4    28    1
    12     5    29    1
    13     8     6    1
    14    10     7    1
    15     7    11    1
    16     7    30    1
    17     7    31    1
    18     8     9    1
    19     8    17    1
    20     8    32    1
    21     9    10    1
    22    10    12    1
    23    10    33    1
    24    11    34    1
    25    12    13    1
    26    12    14    1
    27    12    35    1
    28    13    36    1
    29    14    16    1
    30    14    17    1
    31    14    37    1
    32    15    20    1
    33    15    21    1
    34    15    38    1
    35    16    39    1
    36    17    18    1
    37    17    40    1
    38    18    41    1
    39    21    19    1
    40    19    23    1
    41    19    42    1
    42    19    43    1
    43    20    44    1
    44    21    22    1
    45    21    45    1
    46    22    46    1
    47    23    47    1
@<TRIPOS>SUBSTRUCTURE
     1 RES1        1 GROUP             0 ****  ****    0  
@<TRIPOS>MOLECULE
monobutyrin
    25    24     1     0     0
SMALL
NO_CHARGES
****
Generated from the CSD

@<TRIPOS>ATOM
     1 O1      -3.1001  -0.0607   0.2162   O.3       1 RES1   0.0000
     2 C2      -2.0951   0.8004  -0.2447   C.3       1 RES1   0.0000
     3 C3      -2.5341   2.2282   0.0495   C.3       1 RES1   0.0000
     4 O4      -2.8868   2.3069   1.4109   O.3       1 RES1   0.0000
     5 C5      -1.4506   3.2545  -0.2308   C.3       1 RES1   0.0000
     6 O6      -1.0368   3.1589  -1.5779   O.3       1 RES1   0.0000
     7 C7      -2.9549  -1.4170   0.2372   C.2       1 RES1   0.0000
     8 O8      -3.8100  -2.1397   0.7039   O.2       1 RES1   0.0000
     9 C9      -1.6853  -2.0007  -0.3701   C.3       1 RES1   0.0000
    10 C10     -0.6025  -2.2807   0.6833   C.3       1 RES1   0.0000
    11 C11      0.6435  -2.9217   0.0569   C.3       1 RES1   0.0000
    12 H12     -1.1623   0.5936   0.2779   H         1 RES1   0.0000
    13 H13     -1.9733   0.6768  -1.3198   H         1 RES1   0.0000
    14 H14     -3.4307   2.4648  -0.5216   H         1 RES1   0.0000
    15 H15     -3.5774   1.6187   1.5994   H         1 RES1   0.0000
    16 H16     -1.8136   4.2688  -0.0718   H         1 RES1   0.0000
    17 H17     -0.5727   3.0920   0.3928   H         1 RES1   0.0000
    18 H18     -0.3875   3.8831  -1.7782   H         1 RES1   0.0000
    19 H19     -1.9663  -2.9478  -0.8284   H         1 RES1   0.0000
    20 H20     -1.2918  -1.4057  -1.1929   H         1 RES1   0.0000
    21 H21     -0.3150  -1.3560   1.1816   H         1 RES1   0.0000
    22 H22     -1.0013  -2.9439   1.4495   H         1 RES1   0.0000
    23 H23      1.4059  -3.1142   0.8103   H         1 RES1   0.0000
    24 H24      0.4007  -3.8711  -0.4182   H         1 RES1   0.0000
    25 H25      1.0808  -2.2705  -0.6984   H         1 RES1   0.0000
@<TRIPOS>BOND
     1     1     2    1
     2     1     7    1
     3     2     3    1
     4     2    12    1
     5     2    13    1
     6     3     4    1
     7     3     5    1
     8     3    14    1
     9     4    15    1
    10     5     6    1
    11     5    16    1
    12     5    17    1
    13     6    18    1
    14     7     8    2
    15     7     9    1
    16     9    10    1
    17     9    19    1
    18     9    20    1
    19    10    11    1
    20    10    21    1
    21    10    22    1
    22    11    23    1
    23    11    24    1
    24    11    25    1
@<TRIPOS>SUBSTRUCTURE
     1 RES1        1 GROUP             0 ****  ****    0  
@<TRIPOS>MOLECULE
pamoic_acid
    45    48     1     0     0
SMALL
NO_CHARGES
****
Generated from the CSD

@<TRIPOS>ATOM
     1 C1      -1.5547   2.4168   4.5094   C.3       1 RES1   0.0000
     2 H1      -2.2098   3.1054   5.0411   H         1 RES1   0.0000
     3 C2      -2.2095   1.5735   3.4111   C.ar      1 RES1   0.0000
     4 C3      -1.3945   0.7137   2.7507   C.ar      1 RES1   0.0000
     5 C4      -1.8995  -0.0688   1.7701   C.ar      1 RES1   0.0000
     6 C5      -1.1615  -0.9702   1.0521   C.2       1 RES1   0.0000
     7 C6      -3.2080   0.0273   1.4781   C.ar      1 RES1   0.0000
     8 H2      -3.6447  -0.5931   0.6969   H         1 RES1   0.0000
     9 C7      -4.0213   0.8779   2.1234   C.ar      1 RES1   0.0000
    10 C8      -5.3236   0.9288   1.7825   C.ar      1 RES1   0.0000
    11 H3      -5.7292   0.2939   0.9962   H         1 RES1   0.0000
    12 C9      -6.1656   1.7660   2.4022   C.ar      1 RES1   0.0000
    13 H4      -7.2176   1.8039   2.1235   H         1 RES1   0.0000
    14 C10     -5.6908   2.5584   3.3702   C.ar      1 RES1   0.0000
    15 H5      -6.3629   3.2457   3.8819   H         1 RES1   0.0000
    16 C11     -4.3924   2.5027   3.7042   C.ar      1 RES1   0.0000
    17 H6      -4.1014   3.1855   4.5010   H         1 RES1   0.0000
    18 C12     -3.5243   1.6652   3.0988   C.ar      1 RES1   0.0000
    19 O1      -0.0737   0.6998   3.0972   O.3       1 RES1   0.0000
    20 O2       0.0211  -1.1666   1.2193   O.2       1 RES1   0.0000
    21 O3      -1.7022  -1.7415   0.0730   O.3       1 RES1   0.0000
    22 H7       0.5237   0.2468   2.4460   H         1 RES1   0.0000
    23 H8      -0.9853  -2.3175  -0.3017   H         1 RES1   0.0000
    24 H1A     -0.8996   3.1054   3.9777   H         1 RES1   0.0000
    25 C2A     -0.8998   1.5735   5.6077   C.ar      1 RES1   0.0000
    26 C3A     -1.7148   0.7137   6.2681   C.ar      1 RES1   0.0000
    27 C4A     -1.2099  -0.0688   7.2487   C.ar      1 RES1   0.0000
    28 C5A     -1.9478  -0.9702   7.9668   C.2       1 RES1   0.0000
    29 C6A      0.0987   0.0273   7.5407   C.ar      1 RES1   0.0000
    30 H2A      0.5354  -0.5931   8.3219   H         1 RES1   0.0000
    31 C7A      0.9120   0.8779   6.8954   C.ar      1 RES1   0.0000
    32 C8A      2.2143   0.9288   7.2363   C.ar      1 RES1   0.0000
    33 H3A      2.6199   0.2939   8.0226   H         1 RES1   0.0000
    34 C9A      3.0563   1.7660   6.6166   C.ar      1 RES1   0.0000
    35 H4A      4.1083   1.8040   6.8954   H         1 RES1   0.0000
    36 C10A     2.5815   2.5584   5.6487   C.ar      1 RES1   0.0000
    37 H5A      3.2536   3.2457   5.1370   H         1 RES1   0.0000
    38 C11A     1.2831   2.5027   5.3146   C.ar      1 RES1   0.0000
    39 H6A      0.9921   3.1856   4.5178   H         1 RES1   0.0000
    40 C12A     0.4149   1.6652   5.9200   C.ar      1 RES1   0.0000
    41 O1A     -3.0356   0.6998   5.9216   O.3       1 RES1   0.0000
    42 O2A     -3.1304  -1.1666   7.7996   O.2       1 RES1   0.0000
    43 O3A     -1.4071  -1.7415   8.9458   O.3       1 RES1   0.0000
    44 H7A     -3.6330   0.2469   6.5728   H         1 RES1   0.0000
    45 H8A     -2.1239  -2.3176   9.3204   H         1 RES1   0.0000
@<TRIPOS>BOND
     1     1     2    1
     2     1     3    1
     3     1    24    1
     4     1    25    1
     5     3     4   ar
     6     3    18   ar
     7     4     5   ar
     8     4    19    1
     9     5     6    1
    10     5     7   ar
    11     6    20    2
    12     6    21    1
    13     7     8    1
    14     7     9   ar
    15     9    10   ar
    16     9    18   ar
    17    10    11    1
    18    10    12   ar
    19    12    13    1
    20    12    14   ar
    21    14    15    1
    22    14    16   ar
    23    16    17    1
    24    16    18   ar
    25    19    22    1
    26    21    23    1
    27    25    26   ar
    28    25    40   ar
    29    26    27   ar
    30    26    41    1
    31    27    28    1
    32    27    29   ar
    33    28    42    2
    34    28    43    1
    35    29    30    1
    36    29    31   ar
    37    31    32   ar
    38    31    40   ar
    39    32    33    1
    40    32    34   ar
    41    34    35    1
    42    34    36   ar
    43    36    37    1
    44    36    38   ar
    45    38    39    1
    46    38    40   ar
    47    41    44    1
    48    43    45    1
@<TRIPOS>SUBSTRUCTURE
     1 RES1        1 GROUP             0 A     ****    0  
@<TRIPOS>MOLECULE
phthalamide
    20    20     1     0     0
SMALL
NO_CHARGES
****
Generated from the CSD

@<TRIPOS>ATOM
     1 N1       2.2153  -1.9802   0.1666   N.am      1 RES1   0.0000
     2 C2       0.9071  -1.6958  -0.0632   C.2       1 RES1   0.0000
     3 O3       0.0994  -2.6015  -0.0872   O.2       1 RES1   0.0000
     4 C4       0.6727  -0.2221  -0.2099   C.ar      1 RES1   0.0000
     5 C5       1.4663   0.4998  -1.1064   C.ar      1 RES1   0.0000
     6 C6       1.2657   1.8621  -1.3034   C.ar      1 RES1   0.0000
     7 C7       0.2497   2.5181  -0.6050   C.ar      1 RES1   0.0000
     8 C8      -0.5456   1.8020   0.2830   C.ar      1 RES1   0.0000
     9 C9      -0.3388   0.4379   0.4995   C.ar      1 RES1   0.0000
    10 C10     -1.2476  -0.2371   1.4906   C.2       1 RES1   0.0000
    11 N11     -0.5953  -1.0631   2.3538   N.am      1 RES1   0.0000
    12 O12     -2.4400  -0.0546   1.6404   O.2       1 RES1   0.0000
    13 H        2.9368  -1.2664   0.1555   H         1 RES1   0.0000
    14 H        2.4356  -2.9709   0.1553   H         1 RES1   0.0000
    15 H        2.2417   0.0140  -1.6969   H         1 RES1   0.0000
    16 H        1.8840   2.4133  -2.0104   H         1 RES1   0.0000
    17 H        0.0747   3.5817  -0.7603   H         1 RES1   0.0000
    18 H       -1.3365   2.3338   0.8099   H         1 RES1   0.0000
    19 H        0.3617  -1.3576   2.1875   H         1 RES1   0.0000
    20 H       -1.2314  -1.6443   2.8903   H         1 RES1   0.0000
@<TRIPOS>BOND
     1     1     2   am
     2     2     3    2
     3     2     4    1
     4     4     5   ar
     5     5     6   ar
     6     6     7   ar
     7     7     8   ar
     8     8     9   ar
     9     9     4   ar
    10     9    10    1
    11    10    11   am
    12    10    12    2
    13     1    13    1
    14     1    14    1
    15     5    15    1
    16     6    16    1
    17     7    17    1
    18     8    18    1
    19    11    19    1
    20    11    20    1
@<TRIPOS>SUBSTRUCTURE
     1 RES1        1 GROUP             0 ****  ****    0  
@<TRIPOS>MOLECULE
piperazine
    16    16     1     0     0
SMALL
NO_CHARGES
****
Generated from the CSD

@<TRIPOS>ATOM
     1 N1      -0.5719   1.0282   0.8190   N.3       1 RES1   0.0000
     2 C2       0.3407   0.0392   1.3904   C.3       1 RES1   0.0000
     3 C3       1.3084  -0.4857   0.3210   C.3       1 RES1   0.0000
     4 N4       0.5713  -1.0283  -0.8189   N.3       1 RES1   0.0000
     5 C5      -0.3404  -0.0387  -1.3905   C.3       1 RES1   0.0000
     6 C6      -1.3086   0.4853  -0.3214   C.3       1 RES1   0.0000
     7 H7      -1.2313   1.3247   1.5314   H         1 RES1   0.0000
     8 H8       0.8952   0.4966   2.2085   H         1 RES1   0.0000
     9 H9      -0.2338  -0.7843   1.8119   H         1 RES1   0.0000
    10 H10      1.9442  -1.2651   0.7385   H         1 RES1   0.0000
    11 H11      1.9624   0.3165  -0.0178   H         1 RES1   0.0000
    12 H12      1.2302  -1.3259  -1.5313   H         1 RES1   0.0000
    13 H13     -0.8944  -0.4949  -2.2096   H         1 RES1   0.0000
    14 H14      0.2347   0.7852  -1.8105   H         1 RES1   0.0000
    15 H15     -1.9452   1.2642  -0.7385   H         1 RES1   0.0000
    16 H16     -1.9621  -0.3174   0.0171   H         1 RES1   0.0000
@<TRIPOS>BOND
     1     1     2    1
     2     1     6    1
     3     1     7    1
     4     2     3    1
     5     2     8    1
     6     2     9    1
     7     3     4    1
     8     3    10    1
     9     3    11    1
    10     4     5    1
    11     4    12    1
    12     5     6    1
    13     5    13    1
    14     5    14    1
    15     6    15    1
    16     6    16    1
@<TRIPOS>SUBSTRUCTURE
     1 RES1        1 GROUP             0 ****  ****    0  
@<TRIPOS>MOLECULE
propylparaben
    25    25     1     0     0
SMALL
NO_CHARGES
****
Generated from the CSD

@<TRIPOS>ATOM
     1 O3       9.7748   0.7425   9.2953   O.3       1 RES1   0.0000
     2 O1       3.9394   0.2998   7.0160   O.3       1 RES1   0.0000
     3 H1       3.9952   0.9343   6.2542   H         1 RES1   0.0000
     4 O2       8.9447  -0.6836  10.8231   O.2       1 RES1   0.0000
     5 C4       7.5197   0.1603   9.0945   C.ar      1 RES1   0.0000
     6 C9      11.2826   1.5324  11.0590   C.3       1 RES1   0.0000
     7 H9A     10.5918   1.2519  11.8528   H         1 RES1   0.0000
     8 H9B     11.0621   2.5574  10.7647   H         1 RES1   0.0000
     9 C6       5.2343  -0.5556   8.7820   C.ar      1 RES1   0.0000
    10 H6       4.3825  -1.1568   9.0966   H         1 RES1   0.0000
    11 C3       7.3969   0.9975   7.9994   C.ar      1 RES1   0.0000
    12 H3       8.2409   1.6157   7.6969   H         1 RES1   0.0000
    13 C8      11.0948   0.6138   9.8769   C.3       1 RES1   0.0000
    14 H8A     11.8438   0.8441   9.1207   H         1 RES1   0.0000
    15 H8B     11.2471  -0.4163  10.1955   H         1 RES1   0.0000
    16 C2       6.2154   1.0573   7.2850   C.ar      1 RES1   0.0000
    17 H2       6.1363   1.7104   6.4172   H         1 RES1   0.0000
    18 C1       5.1238   0.2807   7.6766   C.ar      1 RES1   0.0000
    19 C7       8.7930   0.0233   9.8524   C.2       1 RES1   0.0000
    20 C5       6.4216  -0.6246   9.4828   C.ar      1 RES1   0.0000
    21 H5       6.5062  -1.2908  10.3401   H         1 RES1   0.0000
    22 C10     12.7201   1.4419  11.5729   C.3       1 RES1   0.0000
    23 H10A    12.9692   0.4012  11.7747   H         1 RES1   0.0000
    24 H10B    12.8153   2.0221  12.4895   H         1 RES1   0.0000
    25 H10C    13.4001   1.8386  10.8205   H         1 RES1   0.0000
@<TRIPOS>BOND
     1     1    13    1
     2     1    19    1
     3     2     3    1
     4     2    18    1
     5     4    19    2
     6     5    11   ar
     7     5    19    1
     8     5    20   ar
     9     6     7    1
    10     6     8    1
    11     6    13    1
    12     6    22    1
    13     9    10    1
    14     9    18   ar
    15     9    20   ar
    16    11    12    1
    17    11    16   ar
    18    13    14    1
    19    13    15    1
    20    16    17    1
    21    16    18   ar
    22    20    21    1
    23    22    23    1
    24    22    24    1
    25    22    25    1
@<TRIPOS>SUBSTRUCTURE
     1 RES1        1 GROUP             0 ****  ****    0  
@<TRIPOS>MOLECULE
riboflavin
    47    49     1     0     0
SMALL
NO_CHARGES
****
Generated from the CSD

@<TRIPOS>ATOM
     1 C1       3.2851   2.7209   3.0985   C.3       1 RES1   0.0000
     2 C2       3.5117   1.4994   2.2318   C.ar      1 RES1   0.0000
     3 C3       2.8341   1.3623   1.0766   C.ar      1 RES1   0.0000
     4 C4       2.9818   0.3050   0.2537   C.ar      1 RES1   0.0000
     5 C5       3.8416  -0.6539   0.6488   C.ar      1 RES1   0.0000
     6 N6       4.0330  -1.6925  -0.0478   N.2       1 RES1   0.0000
     7 C7       3.4145  -1.8570  -1.1407   C.2       1 RES1   0.0000
     8 C8       3.6570  -3.0031  -1.8360   C.2       1 RES1   0.0000
     9 N9       2.9492  -3.1122  -2.9975   N.am      1 RES1   0.0000
    10 O10      4.4119  -3.8929  -1.5174   O.2       1 RES1   0.0000
    11 C11      2.5438  -0.9309  -1.6093   C.2       1 RES1   0.0000
    12 N12      2.3930   0.0961  -0.8624   N.pl3     1 RES1   0.0000
    13 C13      1.4318   1.1349  -1.3560   C.3       1 RES1   0.0000
    14 C14      0.0327   0.9970  -0.7365   C.3       1 RES1   0.0000
    15 O15     -0.6128   2.2474  -0.8245   O.3       1 RES1   0.0000
    16 C16     -0.8445  -0.0576  -1.4014   C.3       1 RES1   0.0000
    17 O17     -0.4445  -1.3517  -1.0129   O.3       1 RES1   0.0000
    18 C18     -2.3421   0.0313  -1.1270   C.3       1 RES1   0.0000
    19 O19     -2.9313  -1.0805  -1.7651   O.3       1 RES1   0.0000
    20 C20     -2.7450   0.0016   0.3383   C.3       1 RES1   0.0000
    21 O21     -2.4261   1.2282   0.9613   O.3       1 RES1   0.0000
    22 N22      1.9398  -1.1114  -2.7125   N.2       1 RES1   0.0000
    23 C23      2.0849  -2.1459  -3.4245   C.2       1 RES1   0.0000
    24 O24      1.4948  -2.3227  -4.4659   O.2       1 RES1   0.0000
    25 C25      4.5248  -0.5310   1.7997   C.ar      1 RES1   0.0000
    26 C26      4.3791   0.5368   2.6016   C.ar      1 RES1   0.0000
    27 C27      5.1841   0.6379   3.8791   C.3       1 RES1   0.0000
    28 H28      3.1199   2.4434   4.1385   H         1 RES1   0.0000
    29 H29      2.4125   3.2992   2.7986   H         1 RES1   0.0000
    30 H30      4.1466   3.3848   3.0436   H         1 RES1   0.0000
    31 H31      2.1426   2.1703   0.8425   H         1 RES1   0.0000
    32 H32      3.0718  -3.9442  -3.5657   H         1 RES1   0.0000
    33 H33      1.8394   2.1322  -1.1973   H         1 RES1   0.0000
    34 H34      1.3451   1.1687  -2.4410   H         1 RES1   0.0000
    35 H35      0.1238   0.7861   0.3280   H         1 RES1   0.0000
    36 H36     -1.3341   2.2910  -0.1434   H         1 RES1   0.0000
    37 H37     -0.7069  -0.0025  -2.4803   H         1 RES1   0.0000
    38 H38     -1.0882  -1.9833  -1.4286   H         1 RES1   0.0000
    39 H39     -2.7642   0.9124  -1.6081   H         1 RES1   0.0000
    40 H40     -3.8663  -0.8752  -2.0291   H         1 RES1   0.0000
    41 H41     -3.8216  -0.1256   0.4415   H         1 RES1   0.0000
    42 H42     -2.2456  -0.7949   0.8880   H         1 RES1   0.0000
    43 H43     -2.7613   1.2298   1.8960   H         1 RES1   0.0000
    44 H44      5.2186  -1.3172   2.0936   H         1 RES1   0.0000
    45 H45      5.9826  -0.1008   3.9312   H         1 RES1   0.0000
    46 H46      4.5414   0.4815   4.7442   H         1 RES1   0.0000
    47 H47      5.6642   1.6114   3.9672   H         1 RES1   0.0000
@<TRIPOS>BOND
     1     1     2    1
     2     1    28    1
     3     1    29    1
     4     1    30    1
     5     2     3   ar
     6     2    26   ar
     7     3     4   ar
     8     3    31    1
     9     4     5   ar
    10     4    12    1
    11     6     5    1
    12     5    25   ar
    13     7     6    2
    14     8     7    1
    15    11     7    1
    16     9     8   am
    17     8    10    2
    18    23     9   am
    19     9    32    1
    20    12    11    1
    21    11    22    2
    22    12    13    1
    23    13    14    1
    24    13    33    1
    25    13    34    1
    26    14    15    1
    27    14    16    1
    28    14    35    1
    29    15    36    1
    30    16    17    1
    31    16    18    1
    32    16    37    1
    33    17    38    1
    34    18    19    1
    35    18    20    1
    36    18    39    1
    37    19    40    1
    38    20    21    1
    39    20    41    1
    40    20    42    1
    41    21    43    1
    42    22    23    1
    43    23    24    2
    44    25    26   ar
    45    25    44    1
    46    26    27    1
    47    27    45    1
    48    27    46    1
    49    27    47    1
@<TRIPOS>SUBSTRUCTURE
     1 RES1        1 GROUP             0 ****  ****    0  
@<TRIPOS>MOLECULE
saccharin
    17    18     1     0     0
SMALL
NO_CHARGES
****
Generated from the CSD

@<TRIPOS>ATOM
     1 C1      -0.4375  -3.3888   0.4069   C.ar      1 RES1   0.0000
     2 C2      -0.4994  -4.7073   0.6601   C.ar      1 RES1   0.0000
     3 C3       0.5955  -5.4773   0.5454   C.ar      1 RES1   0.0000
     4 C4       0.7212  -2.8195   0.0349   C.ar      1 RES1   0.0000
     5 C5       1.8071  -3.5984  -0.0760   C.ar      1 RES1   0.0000
     6 C6       1.7537  -4.9123   0.1744   C.ar      1 RES1   0.0000
     7 S7       3.2968  -5.8128  -0.0200   S.o2      1 RES1   0.0000
     8 N8       3.8632  -4.2554  -0.4347   N.am      1 RES1   0.0000
     9 C9       3.0348  -3.1672  -0.4391   C.2       1 RES1   0.0000
    10 O10      3.4249  -2.0636  -0.7295   O.2       1 RES1   0.0000
    11 O11      3.3396  -6.6303  -1.2244   O.2       1 RES1   0.0000
    12 O12      3.9133  -6.1802   1.2470   O.2       1 RES1   0.0000
    13 H       -1.3330  -2.7768   0.5037   H         1 RES1   0.0000
    14 H       -1.4450  -5.1560   0.9607   H         1 RES1   0.0000
    15 H        0.5400  -6.5452   0.7516   H         1 RES1   0.0000
    16 H        0.7647  -1.7506  -0.1689   H         1 RES1   0.0000
    17 H        4.8322  -4.0931  -0.6894   H         1 RES1   0.0000
@<TRIPOS>BOND
     1     1     2   ar
     2     1     4   ar
     3     1    13    1
     4     2     3   ar
     5     2    14    1
     6     3     6   ar
     7     3    15    1
     8     4     5   ar
     9     4    16    1
    10     5     6   ar
    11     5     9    1
    12     6     7    1
    13     7     8    1
    14     7    11    2
    15     7    12    2
    16     8     9   am
    17     8    17    1
    18     9    10    2
@<TRIPOS>SUBSTRUCTURE
     1 RES1        1 GROUP             0 A     ****    0  
@<TRIPOS>MOLECULE
t-butylhydroxyanisole
    29    29     1     0     0
SMALL
NO_CHARGES
****
Generated from the CSD

@<TRIPOS>ATOM
     1 C1      -2.4050   0.9819   0.0443   C.ar      1 RES1   0.0000
     2 C2      -2.3490  -0.4097   0.0322   C.ar      1 RES1   0.0000
     3 C3      -1.1409  -1.1127   0.0198   C.ar      1 RES1   0.0000
     4 C4       0.0656  -0.3873   0.0125   C.ar      1 RES1   0.0000
     5 C5      -0.0337   1.0131   0.0281   C.ar      1 RES1   0.0000
     6 C6      -1.2309   1.7422   0.0492   C.ar      1 RES1   0.0000
     7 O7      -1.1753   3.1139   0.0571   O.3       1 RES1   0.0000
     8 O8      -1.1921  -2.4709   0.0035   O.3       1 RES1   0.0000
     9 C9       1.4367  -1.0847  -0.0168   C.3       1 RES1   0.0000
    10 C10     -2.3861   3.8331   0.0271   C.3       1 RES1   0.0000
    11 C11      2.6398  -0.1079  -0.0020   C.3       1 RES1   0.0000
    12 C12      1.5758  -1.9105  -1.3155   C.3       1 RES1   0.0000
    13 C13      1.6082  -1.9822   1.2296   C.3       1 RES1   0.0000
    14 H14     -3.3885   1.4495   0.0500   H         1 RES1   0.0000
    15 H15     -3.2816  -0.9720   0.0297   H         1 RES1   0.0000
    16 H16      0.8666   1.6257   0.0228   H         1 RES1   0.0000
    17 H17     -0.2742  -2.8476  -0.0359   H         1 RES1   0.0000
    18 H18     -2.1430   4.8946   0.0284   H         1 RES1   0.0000
    19 H19     -2.9357   3.6103  -0.8863   H         1 RES1   0.0000
    20 H20     -2.9761   3.6186   0.9169   H         1 RES1   0.0000
    21 H21      2.6502   0.5446  -0.8738   H         1 RES1   0.0000
    22 H22      2.6595   0.5036   0.8989   H         1 RES1   0.0000
    23 H23      3.5874  -0.6442  -0.0210   H         1 RES1   0.0000
    24 H24      1.4772  -1.2717  -2.1919   H         1 RES1   0.0000
    25 H25      0.8342  -2.7020  -1.4125   H         1 RES1   0.0000
    26 H26      2.5472  -2.3993  -1.3729   H         1 RES1   0.0000
    27 H27      1.5165  -1.3959   2.1427   H         1 RES1   0.0000
    28 H28      0.8825  -2.7916   1.2935   H         1 RES1   0.0000
    29 H29      2.5868  -2.4597   1.2431   H         1 RES1   0.0000
@<TRIPOS>BOND
     1     1     2   ar
     2     1     6   ar
     3     1    14    1
     4     2     3   ar
     5     2    15    1
     6     3     4   ar
     7     3     8    1
     8     4     5   ar
     9     4     9    1
    10     5     6   ar
    11     5    16    1
    12     6     7    1
    13     7    10    1
    14     8    17    1
    15     9    11    1
    16     9    12    1
    17     9    13    1
    18    10    18    1
    19    10    19    1
    20    10    20    1
    21    11    21    1
    22    11    22    1
    23    11    23    1
    24    12    24    1
    25    12    25    1
    26    12    26    1
    27    13    27    1
    28    13    28    1
    29    13    29    1
@<TRIPOS>SUBSTRUCTURE
     1 RES1        1 GROUP             0 ****  ****    0  
@<TRIPOS>MOLECULE
thymidine
    31    32     1     0     0
SMALL
NO_CHARGES
****
Generated from the CSD

@<TRIPOS>ATOM
     1 N1       0.3073   0.5578   0.6839   N.am      1 RES1   0.0000
     2 C2      -0.7364   0.2634   1.5277   C.2       1 RES1   0.0000
     3 N3      -1.1016   1.2313   2.4212   N.am      1 RES1   0.0000
     4 C4      -0.5005   2.4531   2.5359   C.2       1 RES1   0.0000
     5 C5       0.5184   2.7155   1.6772   C.2       1 RES1   0.0000
     6 C6       0.8849   1.7765   0.7862   C.2       1 RES1   0.0000
     7 C7       0.7495  -0.4121  -0.3347   C.3       1 RES1   0.0000
     8 C8       1.2115   4.0561   1.7444   C.3       1 RES1   0.0000
     9 C9      -0.8293  -1.6682  -1.4030   C.3       1 RES1   0.0000
    10 C10     -1.3309  -2.0384  -2.7880   C.3       1 RES1   0.0000
    11 O11     -0.8903   3.2342   3.3710   O.2       1 RES1   0.0000
    12 C12      0.1006  -2.6874  -0.7663   C.3       1 RES1   0.0000
    13 C13      0.9872  -1.8473   0.1465   C.3       1 RES1   0.0000
    14 O14     -1.3346  -0.7838   1.5297   O.2       1 RES1   0.0000
    15 O15     -0.1175  -0.4669  -1.4487   O.3       1 RES1   0.0000
    16 O16     -2.2726  -1.0822  -3.2326   O.3       1 RES1   0.0000
    17 O17      0.8980  -3.3178  -1.7398   O.3       1 RES1   0.0000
    18 H18     -1.8730   1.0233   3.0472   H         1 RES1   0.0000
    19 H19      1.6972   2.0013   0.0966   H         1 RES1   0.0000
    20 H20      1.7002  -0.0687  -0.7398   H         1 RES1   0.0000
    21 H21      2.0057   4.1558   1.0060   H         1 RES1   0.0000
    22 H22      0.5004   4.8609   1.5640   H         1 RES1   0.0000
    23 H23      1.6616   4.2035   2.7250   H         1 RES1   0.0000
    24 H24     -1.6944  -1.5204  -0.7583   H         1 RES1   0.0000
    25 H25     -0.5272  -2.0642  -3.5223   H         1 RES1   0.0000
    26 H26     -1.8340  -3.0041  -2.7742   H         1 RES1   0.0000
    27 H27     -0.4366  -3.4735  -0.2377   H         1 RES1   0.0000
    28 H28      0.7279  -1.9894   1.1946   H         1 RES1   0.0000
    29 H29      2.0333  -2.1377   0.0609   H         1 RES1   0.0000
    30 H30     -2.5525  -1.3092  -4.1579   H         1 RES1   0.0000
    31 H31      1.4416  -4.0276  -1.3076   H         1 RES1   0.0000
@<TRIPOS>BOND
     1     1     2   am
     2     6     1    1
     3     7     1    1
     4     2     3   am
     5     2    14    2
     6     3     4   am
     7     3    18    1
     8     5     4    1
     9     4    11    2
    10     5     6    2
    11     5     8    1
    12     6    19    1
    13     7    13    1
    14     7    15    1
    15     7    20    1
    16     8    21    1
    17     8    22    1
    18     8    23    1
    19     9    10    1
    20     9    12    1
    21    15     9    1
    22     9    24    1
    23    10    16    1
    24    10    25    1
    25    10    26    1
    26    12    13    1
    27    12    17    1
    28    12    27    1
    29    13    28    1
    30    13    29    1
    31    16    30    1
    32    17    31    1
@<TRIPOS>SUBSTRUCTURE
     1 RES1        1 GROUP             0 ****  ****    0  
@<TRIPOS>MOLECULE
triphenylacetic_acid
    38    40     1     0     0
SMALL
NO_CHARGES
****
Generated from the CSD

@<TRIPOS>ATOM
     1 O1      -0.6186  -1.5603   1.4704   O.3       1 RES1   0.0000
     2 C2      -0.7359  -1.4183   0.1164   C.2       1 RES1   0.0000
     3 O3      -1.2222  -2.2849  -0.5607   O.2       1 RES1   0.0000
     4 C4      -0.0917  -0.0877  -0.3383   C.3       1 RES1   0.0000
     5 C5      -1.0216   0.7263  -1.2577   C.ar      1 RES1   0.0000
     6 C6      -2.2891   0.3092  -1.6765   C.ar      1 RES1   0.0000
     7 C7      -3.0900   1.1041  -2.4928   C.ar      1 RES1   0.0000
     8 C8      -2.6452   2.3581  -2.9121   C.ar      1 RES1   0.0000
     9 C9      -1.3891   2.8020  -2.4999   C.ar      1 RES1   0.0000
    10 C10     -0.6032   1.9938  -1.6851   C.ar      1 RES1   0.0000
    11 C11      0.1733   0.8444   0.8600   C.ar      1 RES1   0.0000
    12 C12      1.4351   1.3483   1.1874   C.ar      1 RES1   0.0000
    13 C13      1.6284   2.1725   2.2928   C.ar      1 RES1   0.0000
    14 C14      0.5489   2.5267   3.1030   C.ar      1 RES1   0.0000
    15 C15     -0.7246   2.0594   2.7785   C.ar      1 RES1   0.0000
    16 C16     -0.8993   1.2378   1.6697   C.ar      1 RES1   0.0000
    17 C17      1.1904  -0.5307  -1.0618   C.ar      1 RES1   0.0000
    18 C18      2.1831  -1.2271  -0.3609   C.ar      1 RES1   0.0000
    19 C19      3.3549  -1.6615  -0.9729   C.ar      1 RES1   0.0000
    20 C20      3.5600  -1.4230  -2.3318   C.ar      1 RES1   0.0000
    21 C21      2.5703  -0.7621  -3.0597   C.ar      1 RES1   0.0000
    22 C22      1.4041  -0.3352  -2.4299   C.ar      1 RES1   0.0000
    23 H       -0.2304  -0.7430   1.8795   H         1 RES1   0.0000
    24 H       -2.6878  -0.6588  -1.3765   H         1 RES1   0.0000
    25 H       -4.0689   0.7426  -2.8041   H         1 RES1   0.0000
    26 H       -3.2707   2.9808  -3.5500   H         1 RES1   0.0000
    27 H       -1.0239   3.7791  -2.8127   H         1 RES1   0.0000
    28 H        0.3747   2.3598  -1.3757   H         1 RES1   0.0000
    29 H        2.2965   1.1241   0.5600   H         1 RES1   0.0000
    30 H        2.6246   2.5486   2.5210   H         1 RES1   0.0000
    31 H        0.6958   3.1751   3.9655   H         1 RES1   0.0000
    32 H       -1.5817   2.3448   3.3866   H         1 RES1   0.0000
    33 H       -1.9051   0.9025   1.4207   H         1 RES1   0.0000
    34 H        2.0422  -1.4391   0.6979   H         1 RES1   0.0000
    35 H        4.1065  -2.1959  -0.3937   H         1 RES1   0.0000
    36 H        4.4703  -1.7648  -2.8222   H         1 RES1   0.0000
    37 H        2.7031  -0.5891  -4.1266   H         1 RES1   0.0000
    38 H        0.6435   0.1489  -3.0407   H         1 RES1   0.0000
@<TRIPOS>BOND
     1     1     2    1
     2     2     3    2
     3     2     4    1
     4     4     5    1
     5     5     6   ar
     6     6     7   ar
     7     7     8   ar
     8     8     9   ar
     9     9    10   ar
    10    10     5   ar
    11     4    11    1
    12    11    12   ar
    13    12    13   ar
    14    13    14   ar
    15    14    15   ar
    16    15    16   ar
    17    16    11   ar
    18     4    17    1
    19    17    18   ar
    20    18    19   ar
    21    19    20   ar
    22    20    21   ar
    23    21    22   ar
    24    22    17   ar
    25     1    23    1
    26     6    24    1
    27     7    25    1
    28     8    26    1
    29     9    27    1
    30    10    28    1
    31    12    29    1
    32    13    30    1
    33    14    31    1
    34    15    32    1
    35    16    33    1
    36    18    34    1
    37    19    35    1
    38    20    36    1
    39    21    37    1
    40    22    38    1
@<TRIPOS>SUBSTRUCTURE
     1 RES1        1 GROUP             0 ****  ****    0  
@<TRIPOS>MOLECULE
valerolactam
    16    16     1     0     0
SMALL
NO_CHARGES
****
Generated from the CSD

@<TRIPOS>ATOM
     1 O1       1.7671   0.2403  -1.6233   O.2       1 RES1   0.0000
     2 C2       1.0385  -0.0110  -0.6788   C.2       1 RES1   0.0000
     3 C3      -0.3413  -0.4743  -0.8523   C.3       1 RES1   0.0000
     4 C4      -1.0963  -1.0726   0.3423   C.3       1 RES1   0.0000
     5 C5      -0.8001  -0.2528   1.6009   C.3       1 RES1   0.0000
     6 C6       0.7170  -0.1983   1.7883   C.3       1 RES1   0.0000
     7 N7       1.3754   0.3284   0.5819   N.am      1 RES1   0.0000
     8 H       -0.8651   0.4098  -1.2128   H         1 RES1   0.0000
     9 H       -0.2896  -1.1637  -1.6937   H         1 RES1   0.0000
    10 H       -0.7809  -2.1016   0.5082   H         1 RES1   0.0000
    11 H       -2.1577  -1.1003   0.1001   H         1 RES1   0.0000
    12 H       -1.1992   0.7545   1.4915   H         1 RES1   0.0000
    13 H       -1.2568  -0.6870   2.4890   H         1 RES1   0.0000
    14 H        1.0853  -1.1935   2.0329   H         1 RES1   0.0000
    15 H        0.9842   0.4496   2.6218   H         1 RES1   0.0000
    16 H        2.3407   0.6267   0.6788   H         1 RES1   0.0000
@<TRIPOS>BOND
     1     1     2    2
     2     2     3    1
     3     3     4    1
     4     4     5    1
     5     5     6    1
     6     6     7    1
     7     7     2   am
     8     3     8    1
     9     3     9    1
    10     4    10    1
    11     4    11    1
    12     5    12    1
    13     5    13    1
    14     6    14    1
    15     6    15    1
    16     7    16    1
@<TRIPOS>SUBSTRUCTURE
     1 RES1        1 GROUP             0 ****  ****    0  
