@<TRIPOS>MOLECULE
target_44814423_00009
    55    58     1     0     0
SMALL
USER_CHARGES
****
Generated from the CSD

@<TRIPOS>ATOM
     1 CL       2.3127  -3.7962   0.6337   Cl        1 UNL1  -0.0832
     2 O       -2.8287   0.0980  -0.8629   O.3       1 UNL1  -0.3288
     3 O       -3.7020  -0.9508   0.9424   O.3       1 UNL1  -0.3397
     4 O       -5.7645   1.8870   0.2561   O.3       1 UNL1  -0.3861
     5 O       -2.2784   0.7040   2.6584   O.3       1 UNL1  -0.3834
     6 O       -2.8915   3.3480   0.9276   O.3       1 UNL1  -0.3864
     7 O       -4.6971  -0.7915  -2.8713   O.3       1 UNL1  -0.3920
     8 O        5.9632   2.0699  -0.1198   O.3       1 UNL1  -0.4922
     9 C       -4.2307   0.4494  -0.8311   C.3       1 UNL1   0.1473
    10 C       -2.5487  -0.2478   0.4709   C.3       1 UNL1   0.2268
    11 C       -4.4076   1.8049  -0.1653   C.3       1 UNL1   0.1169
    12 C       -2.3556   1.0299   1.2764   C.3       1 UNL1   0.1417
    13 C       -3.4797   2.0578   1.0688   C.3       1 UNL1   0.1151
    14 C       -4.7631  -0.6915   0.0386   C.3       1 UNL1   0.0852
    15 C       -4.7522   0.4856  -2.2521   C.3       1 UNL1   0.0781
    16 C       -1.3290  -1.1430   0.5136   C.ar      1 UNL1   0.0142
    17 C       -0.3235  -1.0152  -0.4376   C.ar      1 UNL1  -0.0485
    18 C       -1.1791  -2.1079   1.5021   C.ar      1 UNL1  -0.0520
    19 C        0.8168  -1.8125  -0.4359   C.ar      1 UNL1  -0.0243
    20 C       -0.0596  -2.9190   1.5340   C.ar      1 UNL1  -0.0427
    21 C        0.9211  -2.7644   0.5697   C.ar      1 UNL1   0.0445
    22 C        1.8771  -1.6262  -1.5057   C.3       1 UNL1  -0.0010
    23 C        2.9717  -0.6483  -1.1292   C.ar      1 UNL1  -0.0428
    24 C        2.8526   0.6999  -1.4245   C.ar      1 UNL1  -0.0548
    25 C        4.1202  -1.0802  -0.4856   C.ar      1 UNL1  -0.0548
    26 C        3.8506   1.5956  -1.0857   C.ar      1 UNL1  -0.0197
    27 C        5.1273  -0.1962  -0.1402   C.ar      1 UNL1  -0.0197
    28 C        4.9932   1.1520  -0.4413   C.ar      1 UNL1   0.1205
    29 C        7.1606   1.6585   0.5461   C.3       1 UNL1   0.0868
    30 C        7.9961   2.8670   0.7504   C.3       1 UNL1  -0.0307
    31 H       -4.2243   2.5832  -0.9047   H         1 UNL1   0.0650
    32 H       -1.4130   1.4860   0.9774   H         1 UNL1   0.0678
    33 H       -4.1009   2.0651   1.9632   H         1 UNL1   0.0648
    34 H       -5.6616  -0.3856   0.5725   H         1 UNL1   0.0591
    35 H       -4.9816  -1.5707  -0.5658   H         1 UNL1   0.0591
    36 H       -4.1617   1.1923  -2.8333   H         1 UNL1   0.0587
    37 H       -5.7825   0.8382  -2.2473   H         1 UNL1   0.0587
    38 H       -5.8491   1.5113   1.1714   H         1 UNL1   0.2100
    39 H       -2.1535   1.5352   3.1871   H         1 UNL1   0.2101
    40 H       -2.3572   3.3773   0.0911   H         1 UNL1   0.2100
    41 H       -0.4325  -0.2608  -1.2154   H         1 UNL1   0.0625
    42 H       -1.9519  -2.2267   2.2601   H         1 UNL1   0.0622
    43 H       -5.0469  -0.7241  -3.7982   H         1 UNL1   0.2095
    44 H        0.0495  -3.6735   2.3117   H         1 UNL1   0.0632
    45 H        2.3306  -2.5927  -1.7204   H         1 UNL1   0.0362
    46 H        1.3955  -1.2776  -2.4181   H         1 UNL1   0.0362
    47 H        1.9588   1.0603  -1.9317   H         1 UNL1   0.0622
    48 H        4.2326  -2.1367  -0.2466   H         1 UNL1   0.0622
    49 H        3.7376   2.6517  -1.3260   H         1 UNL1   0.0654
    50 H        6.0145  -0.5743   0.3655   H         1 UNL1   0.0654
    51 H        7.6957   0.9240  -0.0540   H         1 UNL1   0.0694
    52 H        6.9231   1.1950   1.5025   H         1 UNL1   0.0694
    53 H        8.9262   2.6122   1.2563   H         1 UNL1   0.0262
    54 H        7.4699   3.6020   1.3577   H         1 UNL1   0.0262
    55 H        8.2446   3.3302  -0.2033   H         1 UNL1   0.0262
@<TRIPOS>BOND
     1     1    21    1
     2     2     9    1
     3     2    10    1
     4     3    10    1
     5     3    14    1
     6     4    11    1
     7     4    38    1
     8     5    12    1
     9     5    39    1
    10     6    13    1
    11     6    40    1
    12     7    15    1
    13     7    43    1
    14     8    28    1
    15     8    29    1
    16     9    11    1
    17     9    14    1
    18     9    15    1
    19    10    12    1
    20    10    16    1
    21    11    13    1
    22    11    31    1
    23    12    13    1
    24    12    32    1
    25    13    33    1
    26    14    34    1
    27    14    35    1
    28    15    36    1
    29    15    37    1
    30    16    17   ar
    31    16    18   ar
    32    17    19   ar
    33    17    41    1
    34    18    20   ar
    35    18    42    1
    36    19    21   ar
    37    19    22    1
    38    20    21   ar
    39    20    44    1
    40    22    23    1
    41    22    45    1
    42    22    46    1
    43    23    24   ar
    44    23    25   ar
    45    24    26   ar
    46    24    47    1
    47    25    27   ar
    48    25    48    1
    49    26    28   ar
    50    26    49    1
    51    27    28   ar
    52    27    50    1
    53    29    30    1
    54    29    51    1
    55    29    52    1
    56    30    53    1
    57    30    54    1
    58    30    55    1
@<TRIPOS>SUBSTRUCTURE
     1 UNL1        1 GROUP             0 ****  ****    0  
@<TRIPOS>MOLECULE
(+)-camphoric_acid
    30    30     1     0     0
SMALL
NO_CHARGES
****
Generated from the CSD

@<TRIPOS>ATOM
     1 C1      -0.9808  -2.0436   0.7560   C.2       1 RES1   0.0000
     2 C2      -0.3981  -0.9603  -0.1502   C.3       1 RES1   0.0000
     3 C3      -1.4295  -0.3279  -1.1098   C.3       1 RES1   0.0000
     4 C4      -0.7488   0.9588  -1.5879   C.3       1 RES1   0.0000
     5 C5      -0.0196   1.4755  -0.3340   C.3       1 RES1   0.0000
     6 C6       1.2410   2.2849  -0.5939   C.2       1 RES1   0.0000
     7 C7       0.1286   0.2733   0.6487   C.3       1 RES1   0.0000
     8 C8      -0.7564   0.5448   1.8939   C.3       1 RES1   0.0000
     9 C9       1.5670   0.0921   1.1765   C.3       1 RES1   0.0000
    10 C10      0.6958  -1.6738  -0.9767   C.3       1 RES1   0.0000
    11 O11     -0.3722  -2.6661   1.5939   O.2       1 RES1   0.0000
    12 O12     -2.2807  -2.2994   0.5266   O.3       1 RES1   0.0000
    13 O13      1.6086   3.2449   0.0412   O.2       1 RES1   0.0000
    14 O14      1.9812   1.8036  -1.6088   O.3       1 RES1   0.0000
    15 H15     -1.7088  -0.9818  -1.9346   H         1 RES1   0.0000
    16 H16     -2.3399  -0.0477  -0.5821   H         1 RES1   0.0000
    17 H17     -1.4623   1.6787  -1.9862   H         1 RES1   0.0000
    18 H18     -0.0627   0.7155  -2.3978   H         1 RES1   0.0000
    19 H19     -0.6939   2.2014   0.1180   H         1 RES1   0.0000
    20 H20     -0.6616  -0.2353   2.6478   H         1 RES1   0.0000
    21 H21     -0.4713   1.4741   2.3849   H         1 RES1   0.0000
    22 H22     -1.8125   0.6253   1.6409   H         1 RES1   0.0000
    23 H23      1.8769   0.9421   1.7827   H         1 RES1   0.0000
    24 H24      1.6456  -0.7914   1.8083   H         1 RES1   0.0000
    25 H25      2.3038  -0.0143   0.3817   H         1 RES1   0.0000
    26 H26      1.2433  -0.9937  -1.6276   H         1 RES1   0.0000
    27 H27      1.4319  -2.1728  -0.3481   H         1 RES1   0.0000
    28 H28      0.2612  -2.4440  -1.6121   H         1 RES1   0.0000
    29 H29     -2.5557  -3.0347   1.1347   H         1 RES1   0.0000
    30 H30      2.8055   2.3536  -1.6730   H         1 RES1   0.0000
@<TRIPOS>BOND
     1     1     2    1
     2     1    11    2
     3     1    12    1
     4     2     3    1
     5     2     7    1
     6     2    10    1
     7     3     4    1
     8     3    15    1
     9     3    16    1
    10     4     5    1
    11     4    17    1
    12     4    18    1
    13     5     6    1
    14     5     7    1
    15     5    19    1
    16     6    13    2
    17     6    14    1
    18     7     8    1
    19     7     9    1
    20     8    20    1
    21     8    21    1
    22     8    22    1
    23     9    23    1
    24     9    24    1
    25     9    25    1
    26    10    26    1
    27    10    27    1
    28    10    28    1
    29    12    29    1
    30    14    30    1
@<TRIPOS>SUBSTRUCTURE
     1 RES1        1 GROUP             0 ****  ****    0  
@<TRIPOS>MOLECULE
(-)-camphorsulfonic_acid
    31    32     1     0     0
SMALL
NO_CHARGES
****
Generated from the CSD

@<TRIPOS>ATOM
     1 C1       1.6132   0.2963   0.7285   C.3       1 RES1   0.0000
     2 C2       0.6529   1.0706  -0.1956   C.3       1 RES1   0.0000
     3 C3       1.5224   1.4384  -1.4141   C.3       1 RES1   0.0000
     4 C4      -0.0501   2.2697   0.4928   C.3       1 RES1   0.0000
     5 C5      -1.0001   2.8009  -0.6015   C.3       1 RES1   0.0000
     6 C6      -1.4658   1.4914  -1.2838   C.3       1 RES1   0.0000
     7 C7      -0.6862   0.3668  -0.5286   C.3       1 RES1   0.0000
     8 C8      -0.7283  -0.9902  -1.2567   C.3       1 RES1   0.0000
     9 S9      -0.0394  -2.5759  -0.8315   S.o2      1 RES1   0.0000
    10 O10      1.2740  -2.5343  -1.6379   O.3       1 RES1   0.0000
    11 O11     -0.6795  -3.5850  -1.5874   O.2       1 RES1   0.0000
    12 O12      0.2452  -2.7603   0.5405   O.2       1 RES1   0.0000
    13 C13     -1.3587   0.3339   0.8411   C.2       1 RES1   0.0000
    14 O14     -2.1062  -0.5166   1.2673   O.2       1 RES1   0.0000
    15 C15     -0.9222   1.5909   1.5636   C.3       1 RES1   0.0000
    16 H        2.0793  -0.5289   0.1921   H         1 RES1   0.0000
    17 H        2.4111   0.9540   1.0703   H         1 RES1   0.0000
    18 H        1.1441  -0.1296   1.6142   H         1 RES1   0.0000
    19 H        1.9089   0.5359  -1.8853   H         1 RES1   0.0000
    20 H        1.0091   2.0067  -2.1884   H         1 RES1   0.0000
    21 H        2.3757   2.0348  -1.0947   H         1 RES1   0.0000
    22 H        0.6073   3.0328   0.9068   H         1 RES1   0.0000
    23 H       -0.4796   3.4505  -1.3037   H         1 RES1   0.0000
    24 H       -1.8205   3.3875  -0.1908   H         1 RES1   0.0000
    25 H       -1.2051   1.4841  -2.3411   H         1 RES1   0.0000
    26 H       -2.5436   1.3402  -1.2456   H         1 RES1   0.0000
    27 H       -1.7799  -1.2440  -1.3817   H         1 RES1   0.0000
    28 H       -0.3369  -0.8401  -2.2618   H         1 RES1   0.0000
    29 H        0.8565  -3.1366  -2.3079   H         1 RES1   0.0000
    30 H       -0.3722   1.3169   2.4627   H         1 RES1   0.0000
    31 H       -1.7834   2.1754   1.8839   H         1 RES1   0.0000
@<TRIPOS>BOND
     1     1     2    1
     2     2     3    1
     3     2     4    1
     4     4     5    1
     5     5     6    1
     6     6     7    1
     7     7     2    1
     8     7     8    1
     9     8     9    1
    10     9    10    1
    11     9    11    2
    12     9    12    2
    13     7    13    1
    14    13    14    2
    15    13    15    1
    16    15     4    1
    17     1    16    1
    18     1    17    1
    19     1    18    1
    20     3    19    1
    21     3    20    1
    22     3    21    1
    23     4    22    1
    24     5    23    1
    25     5    24    1
    26     6    25    1
    27     6    26    1
    28     8    27    1
    29     8    28    1
    30    10    29    1
    31    15    30    1
    32    15    31    1
@<TRIPOS>SUBSTRUCTURE
     1 RES1        1 GROUP             0 ****  ****    0  
@<TRIPOS>MOLECULE
D-pantothenol
    33    32     1     0     0
SMALL
NO_CHARGES
****
Generated from the CSD

@<TRIPOS>ATOM
     1 C1      -0.1974  -2.1233  -1.0860   C.3       1 RES1   0.0000
     2 C2       1.9493  -0.8924  -0.7659   C.3       1 RES1   0.0000
     3 C3       0.0443   0.2807  -1.9187   C.3       1 RES1   0.0000
     4 C4       0.7424  -1.0792  -1.7138   C.3       1 RES1   0.0000
     5 C5       1.2799  -1.6131  -3.0600   C.3       1 RES1   0.0000
     6 O6      -1.4801  -2.0667  -1.6802   O.3       1 RES1   0.0000
     7 O7      -0.8494   0.2202  -3.0181   O.3       1 RES1   0.0000
     8 C8      -0.7471   2.0040   1.4015   C.3       1 RES1   0.0000
     9 C9      -0.7750   0.7053  -0.7128   C.2       1 RES1   0.0000
    10 C10     -0.8567   1.4930   3.8830   C.3       1 RES1   0.0000
    11 O11     -0.4215   0.5880   4.8779   O.3       1 RES1   0.0000
    12 O12     -1.8834   0.2579  -0.5378   O.2       1 RES1   0.0000
    13 N13     -0.1497   1.5742   0.1354   N.am      1 RES1   0.0000
    14 C14     -0.3139   1.0540   2.5267   C.3       1 RES1   0.0000
    15 H15      0.1889  -3.1339  -1.2100   H         1 RES1   0.0000
    16 H16     -0.3425  -1.9531  -0.0202   H         1 RES1   0.0000
    17 H17      1.6447  -0.5112   0.2077   H         1 RES1   0.0000
    18 H18      2.6752  -0.1924  -1.1771   H         1 RES1   0.0000
    19 H19      2.4667  -1.8349  -0.5927   H         1 RES1   0.0000
    20 H20      0.7690   1.0552  -2.1654   H         1 RES1   0.0000
    21 H21      0.4755  -1.8822  -3.7430   H         1 RES1   0.0000
    22 H22      1.9054  -0.8720  -3.5554   H         1 RES1   0.0000
    23 H23      1.8853  -2.5078  -2.9222   H         1 RES1   0.0000
    24 H24     -2.0432  -1.4383  -1.1566   H         1 RES1   0.0000
    25 H25     -1.6065  -0.3692  -2.7624   H         1 RES1   0.0000
    26 H26     -1.8324   2.0548   1.3273   H         1 RES1   0.0000
    27 H27     -0.3900   3.0108   1.6133   H         1 RES1   0.0000
    28 H28     -1.9456   1.4969   3.8960   H         1 RES1   0.0000
    29 H29     -0.4918   2.4814   4.1583   H         1 RES1   0.0000
    30 H30     -0.7877   0.8625   5.7591   H         1 RES1   0.0000
    31 H31      0.8001   1.8596  -0.0805   H         1 RES1   0.0000
    32 H32     -0.6663   0.0479   2.3044   H         1 RES1   0.0000
    33 H33      0.7736   1.0152   2.5680   H         1 RES1   0.0000
@<TRIPOS>BOND
     1     4     1    1
     2     1     6    1
     3     1    15    1
     4     1    16    1
     5     2     4    1
     6     2    17    1
     7     2    18    1
     8     2    19    1
     9     4     3    1
    10     3     7    1
    11     3     9    1
    12     3    20    1
    13     4     5    1
    14     5    21    1
    15     5    22    1
    16     5    23    1
    17     6    24    1
    18     7    25    1
    19    13     8    1
    20     8    14    1
    21     8    26    1
    22     8    27    1
    23     9    12    2
    24     9    13   am
    25    10    11    1
    26    14    10    1
    27    10    28    1
    28    10    29    1
    29    11    30    1
    30    13    31    1
    31    14    32    1
    32    14    33    1
@<TRIPOS>SUBSTRUCTURE
     1 RES1        1 GROUP             0 ****  ****    0  
@<TRIPOS>MOLECULE
EDTA
    36    35     1     0     0
SMALL
NO_CHARGES
****
Generated from the CSD

@<TRIPOS>ATOM
     1 C1      -1.8574  -2.3286   1.6549   C.3       1 RES1   0.0000
     2 O2      -3.6066  -2.9589   0.1443   O.3       1 RES1   0.0000
     3 C3      -0.3881  -0.6131   0.8182   C.3       1 RES1   0.0000
     4 C4       0.1796   0.1330  -0.4103   C.3       1 RES1   0.0000
     5 C5      -2.9838  -3.2906   1.2966   C.2       1 RES1   0.0000
     6 O6      -3.2954  -4.2371   1.9845   O.2       1 RES1   0.0000
     7 N7      -1.2255  -1.7584   0.4731   N.3       1 RES1   0.0000
     8 N8       0.6740   1.4701  -0.0905   N.3       1 RES1   0.0000
     9 C9       0.8682   2.2540  -1.3096   C.3       1 RES1   0.0000
    10 C10      1.1791   3.7052  -0.9856   C.2       1 RES1   0.0000
    11 O11      0.4186   4.5019  -0.4890   O.2       1 RES1   0.0000
    12 O12      2.4602   4.0141  -1.2562   O.3       1 RES1   0.0000
    13 C13      1.8856   1.4377   0.7256   C.3       1 RES1   0.0000
    14 C14      1.9437   2.6415   1.6509   C.2       1 RES1   0.0000
    15 O15      2.7412   3.5472   1.6010   O.2       1 RES1   0.0000
    16 O16      0.9632   2.6031   2.5722   O.3       1 RES1   0.0000
    17 C17     -0.5073  -2.7639  -0.3036   C.3       1 RES1   0.0000
    18 C18     -0.8000  -2.5651  -1.7798   C.2       1 RES1   0.0000
    19 O19     -1.8883  -2.3261  -2.2468   O.2       1 RES1   0.0000
    20 O20      0.3006  -2.6806  -2.5418   O.3       1 RES1   0.0000
    21 H21     -2.3290  -1.5506   2.2534   H         1 RES1   0.0000
    22 H22     -1.1248  -2.8312   2.2847   H         1 RES1   0.0000
    23 H24     -0.9848   0.1101   1.3721   H         1 RES1   0.0000
    24 H25      0.4086  -0.9390   1.4852   H         1 RES1   0.0000
    25 H26      0.9655  -0.4477  -0.8911   H         1 RES1   0.0000
    26 H27     -0.6415   0.2157  -1.1208   H         1 RES1   0.0000
    27 H28      1.6348   1.8162  -1.9472   H         1 RES1   0.0000
    28 H29     -0.0498   2.2815  -1.8948   H         1 RES1   0.0000
    29 H30      2.6520   4.9082  -0.8691   H         1 RES1   0.0000
    30 H31      1.9244   0.5703   1.3829   H         1 RES1   0.0000
    31 H32      2.7845   1.3777   0.1137   H         1 RES1   0.0000
    32 H33      1.0163   3.4319   3.1165   H         1 RES1   0.0000
    33 H34      0.5584  -2.7731  -0.0797   H         1 RES1   0.0000
    34 H35     -0.8646  -3.7706  -0.0919   H         1 RES1   0.0000
    35 H36      0.0349  -2.5579  -3.4907   H         1 RES1   0.0000
    36 H       -2.9505  -2.9680  -0.6010   H         1 RES1   0.0000
@<TRIPOS>BOND
     1     5     1    1
     2     1     7    1
     3     1    21    1
     4     1    22    1
     5     2     5    1
     6     3     4    1
     7     7     3    1
     8     3    23    1
     9     3    24    1
    10     4     8    1
    11     4    25    1
    12     4    26    1
    13     5     6    2
    14     7    17    1
    15     8     9    1
    16     8    13    1
    17     9    10    1
    18     9    27    1
    19     9    28    1
    20    10    11    2
    21    10    12    1
    22    12    29    1
    23    13    14    1
    24    13    30    1
    25    13    31    1
    26    14    15    2
    27    14    16    1
    28    16    32    1
    29    17    18    1
    30    17    33    1
    31    17    34    1
    32    18    19    2
    33    18    20    1
    34    20    35    1
    35     2    36    1
@<TRIPOS>SUBSTRUCTURE
     1 RES1        1 GROUP             0 ****  ****    0  
@<TRIPOS>MOLECULE
L-glutathione
    37    36     1     0     0
SMALL
NO_CHARGES
****
Generated from the CSD

@<TRIPOS>ATOM
     1 O1      -0.8224  -3.8053  -1.6825   O.2       1 RES1   0.0000
     2 C2      -0.5892  -2.6253  -1.5777   C.2       1 RES1   0.0000
     3 N3      -1.6257  -1.7405  -1.4601   N.am      1 RES1   0.0000
     4 C4      -1.5253  -0.2804  -1.4344   C.3       1 RES1   0.0000
     5 C5      -2.9298   0.2531  -1.6492   C.2       1 RES1   0.0000
     6 O6      -2.9653   1.5933  -1.7274   O.3       1 RES1   0.0000
     7 O7      -3.9188  -0.4357  -1.7382   O.2       1 RES1   0.0000
     8 C8       0.8326  -2.0566  -1.5958   C.3       1 RES1   0.0000
     9 C9       1.9253  -3.1451  -1.6671   C.3       1 RES1   0.0000
    10 S10      2.0527  -3.9994  -0.0603   S.3       1 RES1   0.0000
    11 N11      1.0891  -1.1785  -0.4456   N.am      1 RES1   0.0000
    12 C12      1.7314   0.0258  -0.5559   C.2       1 RES1   0.0000
    13 C13      1.9624   0.7323   0.7709   C.3       1 RES1   0.0000
    14 C14      3.2056   1.6373   0.7728   C.3       1 RES1   0.0000
    15 C15      3.4080   2.3920   2.0987   C.3       1 RES1   0.0000
    16 N16      3.4730   1.4567   3.2332   N.3       1 RES1   0.0000
    17 C17      4.6555   3.2565   2.1005   C.2       1 RES1   0.0000
    18 O18      4.8393   3.8384   3.3011   O.3       1 RES1   0.0000
    19 O19      5.4225   3.4450   1.1870   O.2       1 RES1   0.0000
    20 O20      2.0782   0.4834  -1.6182   O.2       1 RES1   0.0000
    21 H21     -2.5597  -2.1376  -1.4461   H         1 RES1   0.0000
    22 H22     -1.1759   0.0599  -0.4607   H         1 RES1   0.0000
    23 H23     -0.8860   0.0858  -2.2364   H         1 RES1   0.0000
    24 H24     -3.9056   1.8773  -1.8730   H         1 RES1   0.0000
    25 H25      0.8813  -1.4953  -2.5277   H         1 RES1   0.0000
    26 H26      1.7184  -3.8513  -2.4699   H         1 RES1   0.0000
    27 H27      2.8830  -2.6796  -1.8954   H         1 RES1   0.0000
    28 H28      3.0252  -4.8533  -0.4259   H         1 RES1   0.0000
    29 H29      0.8576  -1.5221   0.4810   H         1 RES1   0.0000
    30 H30      2.0640  -0.0223   1.5495   H         1 RES1   0.0000
    31 H31      1.0726   1.3209   0.9895   H         1 RES1   0.0000
    32 H32      3.1231   2.3646  -0.0336   H         1 RES1   0.0000
    33 H33      4.0836   1.0251   0.5724   H         1 RES1   0.0000
    34 H34      2.5608   3.0561   2.2632   H         1 RES1   0.0000
    35 H35      3.6730   1.9580   4.0928   H         1 RES1   0.0000
    36 H36      2.5732   1.0148   3.3923   H         1 RES1   0.0000
    37 H37      5.6663   4.3859   3.2521   H         1 RES1   0.0000
@<TRIPOS>BOND
     1     1     2    2
     2     2     3   am
     3     2     8    1
     4     3     4    1
     5     3    21    1
     6     4     5    1
     7     4    22    1
     8     4    23    1
     9     5     6    1
    10     5     7    2
    11     6    24    1
    12     8     9    1
    13     8    11    1
    14     8    25    1
    15     9    10    1
    16     9    26    1
    17     9    27    1
    18    10    28    1
    19    11    12   am
    20    11    29    1
    21    12    13    1
    22    12    20    2
    23    13    14    1
    24    13    30    1
    25    13    31    1
    26    14    15    1
    27    14    32    1
    28    14    33    1
    29    15    16    1
    30    15    17    1
    31    15    34    1
    32    16    35    1
    33    16    36    1
    34    17    18    1
    35    17    19    2
    36    18    37    1
@<TRIPOS>SUBSTRUCTURE
     1 RES1        1 GROUP             0 ****  ****    0  
@<TRIPOS>MOLECULE
L-tyrosine
    24    24     1     0     0
SMALL
NO_CHARGES
****
Generated from the CSD

@<TRIPOS>ATOM
     1 C1       1.2382   0.7997  -1.6507   C.2       1 RES1   0.0000
     2 N2       2.2709   1.9565   0.2090   N.3       1 RES1   0.0000
     3 C3       1.2828   0.9215  -0.1390   C.3       1 RES1   0.0000
     4 C4      -0.0422   1.2406   0.5772   C.3       1 RES1   0.0000
     5 C5      -1.0451   0.1055   0.5501   C.ar      1 RES1   0.0000
     6 C6      -0.8030  -1.0399   1.2109   C.ar      1 RES1   0.0000
     7 C7      -1.6869  -2.0494   1.1931   C.ar      1 RES1   0.0000
     8 C8      -2.8444  -1.9516   0.5181   C.ar      1 RES1   0.0000
     9 O9      -3.7448  -2.9708   0.4947   O.3       1 RES1   0.0000
    10 C10     -3.0875  -0.8027  -0.1343   C.ar      1 RES1   0.0000
    11 C11     -2.2078   0.2101  -0.1172   C.ar      1 RES1   0.0000
    12 O12      2.1989   0.8661  -2.3803   O.2       1 RES1   0.0000
    13 O13      0.0091   0.5627  -2.1376   O.3       1 RES1   0.0000
    14 H14      2.5228   1.8983   1.1905   H         1 RES1   0.0000
    15 H15      3.1364   1.8035  -0.2987   H         1 RES1   0.0000
    16 H16      1.6825  -0.0243   0.2238   H         1 RES1   0.0000
    17 H17     -0.4651   2.1519   0.1570   H         1 RES1   0.0000
    18 H18      0.1593   1.4650   1.6236   H         1 RES1   0.0000
    19 H19      0.1224  -1.1554   1.7732   H         1 RES1   0.0000
    20 H20     -1.4640  -2.9660   1.7373   H         1 RES1   0.0000
    21 H21     -4.5252  -2.6991  -0.0560   H         1 RES1   0.0000
    22 H22     -4.0193  -0.6920  -0.6870   H         1 RES1   0.0000
    23 H23     -2.4463   1.1246  -0.6582   H         1 RES1   0.0000
    24 H24      0.0834   0.4761  -3.1240   H         1 RES1   0.0000
@<TRIPOS>BOND
     1     1     3    1
     2     1    12    2
     3     1    13    1
     4     3     2    1
     5     2    14    1
     6     2    15    1
     7     3     4    1
     8     3    16    1
     9     4     5    1
    10     4    17    1
    11     4    18    1
    12     5     6   ar
    13     5    11   ar
    14     6     7   ar
    15     6    19    1
    16     7     8   ar
    17     7    20    1
    18     8     9    1
    19     8    10   ar
    20     9    21    1
    21    10    11   ar
    22    10    22    1
    23    11    23    1
    24    13    24    1
@<TRIPOS>SUBSTRUCTURE
     1 RES1        1 GROUP             0 ****  ****    0  
@<TRIPOS>MOLECULE
alitame
    47    47     1     0     0
SMALL
NO_CHARGES
****
Generated from the CSD

@<TRIPOS>ATOM
     1 C1      -0.4463  -2.8394   0.8746   C.3       1 RES1   0.0000
     2 C2       0.3390  -1.9558  -0.1106   C.3       1 RES1   0.0000
     3 C3      -0.4764  -0.7117  -0.4273   C.2       1 RES1   0.0000
     4 O4      -1.0067  -0.5366  -1.4980   O.2       1 RES1   0.0000
     5 N5      -0.5504   0.1887   0.5973   N.am      1 RES1   0.0000
     6 C6      -1.2795   1.4522   0.4728   C.3       1 RES1   0.0000
     7 C7      -0.9580   2.4784   1.6053   C.3       1 RES1   0.0000
     8 S8      -2.7197   2.5607   2.1656   S.3       1 RES1   0.0000
     9 C9      -2.8097   1.3609   0.7597   C.3       1 RES1   0.0000
    10 C10     -3.3014  -0.0098   1.2374   C.3       1 RES1   0.0000
    11 C11     -3.6606   1.9169  -0.3884   C.3       1 RES1   0.0000
    12 C12     -0.4836   3.8353   1.0711   C.3       1 RES1   0.0000
    13 C13     -0.0538   1.9523   2.7258   C.3       1 RES1   0.0000
    14 N14      0.6651  -2.7476  -1.3038   N.am      1 RES1   0.0000
    15 C15      1.5754  -2.4696  -2.2911   C.2       1 RES1   0.0000
    16 O16      1.7643  -3.2952  -3.1523   O.2       1 RES1   0.0000
    17 C17      2.2610  -1.1032  -2.3379   C.3       1 RES1   0.0000
    18 C18      3.0836  -0.5977  -1.1438   C.3       1 RES1   0.0000
    19 C19      3.9465  -1.6808  -0.5275   C.2       1 RES1   0.0000
    20 O20      3.7552  -2.2273   0.5321   O.2       1 RES1   0.0000
    21 O21      5.0001  -1.9845  -1.3064   O.3       1 RES1   0.0000
    22 N22      1.3353  -0.0709  -2.8329   N.3       1 RES1   0.0000
    23 H23      0.1168  -3.7355   1.1313   H         1 RES1   0.0000
    24 H24     -1.3943  -3.1560   0.4423   H         1 RES1   0.0000
    25 H25     -0.6638  -2.3153   1.8041   H         1 RES1   0.0000
    26 H26      1.2533  -1.6725   0.4088   H         1 RES1   0.0000
    27 H27     -0.1625  -0.0757   1.4972   H         1 RES1   0.0000
    28 H28     -1.0751   1.8959  -0.5005   H         1 RES1   0.0000
    29 H29     -4.3356   0.0435   1.5742   H         1 RES1   0.0000
    30 H30     -2.7062  -0.3985   2.0624   H         1 RES1   0.0000
    31 H31     -3.2628  -0.7357   0.4266   H         1 RES1   0.0000
    32 H32     -3.5943   1.2640  -1.2575   H         1 RES1   0.0000
    33 H33     -3.3369   2.9094  -0.6983   H         1 RES1   0.0000
    34 H34     -4.7093   1.9859  -0.1031   H         1 RES1   0.0000
    35 H35     -0.4247   4.5736   1.8695   H         1 RES1   0.0000
    36 H36     -1.1472   4.2321   0.3042   H         1 RES1   0.0000
    37 H37      0.5085   3.7409   0.6320   H         1 RES1   0.0000
    38 H38     -0.4211   1.0210   3.1543   H         1 RES1   0.0000
    39 H39      0.9527   1.7742   2.3501   H         1 RES1   0.0000
    40 H40      0.0219   2.6740   3.5378   H         1 RES1   0.0000
    41 H41      0.1805  -3.6298  -1.4344   H         1 RES1   0.0000
    42 H42      2.9930  -1.2164  -3.1362   H         1 RES1   0.0000
    43 H43      2.4498  -0.1429  -0.3840   H         1 RES1   0.0000
    44 H44      3.7339   0.2157  -1.4622   H         1 RES1   0.0000
    45 H45      5.5179  -2.7064  -0.8628   H         1 RES1   0.0000
    46 H46      1.2545  -0.1253  -3.8432   H         1 RES1   0.0000
    47 H47      0.3874  -0.2255  -2.5046   H         1 RES1   0.0000
@<TRIPOS>BOND
     1     2     1    1
     2     1    23    1
     3     1    24    1
     4     1    25    1
     5     2     3    1
     6     2    14    1
     7     2    26    1
     8     3     4    2
     9     3     5   am
    10     5     6    1
    11     5    27    1
    12     6     7    1
    13     6     9    1
    14     6    28    1
    15     7     8    1
    16     7    12    1
    17     7    13    1
    18     8     9    1
    19     9    10    1
    20     9    11    1
    21    10    29    1
    22    10    30    1
    23    10    31    1
    24    11    32    1
    25    11    33    1
    26    11    34    1
    27    12    35    1
    28    12    36    1
    29    12    37    1
    30    13    38    1
    31    13    39    1
    32    13    40    1
    33    14    15   am
    34    14    41    1
    35    15    16    2
    36    15    17    1
    37    17    18    1
    38    17    22    1
    39    17    42    1
    40    18    19    1
    41    18    43    1
    42    18    44    1
    43    19    20    2
    44    19    21    1
    45    21    45    1
    46    22    46    1
    47    22    47    1
@<TRIPOS>SUBSTRUCTURE
     1 RES1        1 GROUP             0 ****  ****    0  
@<TRIPOS>MOLECULE
biotin
    32    33     1     0     0
SMALL
NO_CHARGES
****
Generated from the CSD

@<TRIPOS>ATOM
     1 O1       4.9124   0.9534  -3.3544   O.3       1 RES1   0.0000
     2 C2       3.7641   0.2962  -3.1073   C.2       1 RES1   0.0000
     3 C3       3.1496   0.7252  -1.7880   C.3       1 RES1   0.0000
     4 C4       2.0629  -0.2413  -1.2907   C.3       1 RES1   0.0000
     5 C5       1.4735   0.1991   0.0599   C.3       1 RES1   0.0000
     6 C6       0.4691  -0.8298   0.6105   C.3       1 RES1   0.0000
     7 C7      -0.1628  -0.3952   1.9475   C.3       1 RES1   0.0000
     8 C8      -1.3935   0.5230   1.8259   C.3       1 RES1   0.0000
     9 N9      -1.5108   1.2649   0.5647   N.am      1 RES1   0.0000
    10 C10     -2.6457   1.0090  -0.1393   C.2       1 RES1   0.0000
    11 O11     -2.9601   1.4942  -1.1925   O.2       1 RES1   0.0000
    12 H12     -1.4136   1.2396   2.6457   H         1 RES1   0.0000
    13 C13     -2.7120  -0.3159   1.8319   C.3       1 RES1   0.0000
    14 N14     -3.3558   0.1001   0.5801   N.am      1 RES1   0.0000
    15 H15     -3.3438  -0.0302   2.6716   H         1 RES1   0.0000
    16 C16     -2.3903  -1.8140   1.8708   C.3       1 RES1   0.0000
    17 S17     -0.8326  -1.8673   2.8063   S.3       1 RES1   0.0000
    18 O18      3.3331  -0.5298  -3.8759   O.2       1 RES1   0.0000
    19 H19      5.2662   0.6336  -4.2254   H         1 RES1   0.0000
    20 H20      2.7275   1.7202  -1.9213   H         1 RES1   0.0000
    21 H21      3.9389   0.7905  -1.0405   H         1 RES1   0.0000
    22 H22      2.4939  -1.2362  -1.1893   H         1 RES1   0.0000
    23 H23      1.2620  -0.3046  -2.0259   H         1 RES1   0.0000
    24 H24      0.9974   1.1713  -0.0588   H         1 RES1   0.0000
    25 H25      2.2818   0.3270   0.7784   H         1 RES1   0.0000
    26 H26      1.0215  -1.7576   0.7517   H         1 RES1   0.0000
    27 H27     -0.3020  -1.0339  -0.1310   H         1 RES1   0.0000
    28 H28      0.6062   0.0668   2.5649   H         1 RES1   0.0000
    29 H29     -0.8253   1.9329   0.2269   H         1 RES1   0.0000
    30 H30     -4.2507  -0.2490   0.2523   H         1 RES1   0.0000
    31 H31     -3.1881  -2.3943   2.3320   H         1 RES1   0.0000
    32 H32     -2.2323  -2.1967   0.8636   H         1 RES1   0.0000
@<TRIPOS>BOND
     1     1     2    1
     2     1    19    1
     3     2     3    1
     4     2    18    2
     5     3     4    1
     6     3    20    1
     7     3    21    1
     8     4     5    1
     9     4    22    1
    10     4    23    1
    11     5     6    1
    12     5    24    1
    13     5    25    1
    14     7     6    1
    15     6    26    1
    16     6    27    1
    17     7     8    1
    18     7    17    1
    19     7    28    1
    20     8     9    1
    21     8    12    1
    22     8    13    1
    23     9    10   am
    24     9    29    1
    25    10    11    2
    26    10    14   am
    27    13    14    1
    28    13    15    1
    29    13    16    1
    30    14    30    1
    31    16    17    1
    32    16    31    1
    33    16    32    1
@<TRIPOS>SUBSTRUCTURE
     1 RES1        1 GROUP             0 ****  ****    0  
@<TRIPOS>MOLECULE
capsaicin
    49    49     1     0     0
SMALL
NO_CHARGES
****
Generated from the CSD

@<TRIPOS>ATOM
     1 C1      -4.2060  -6.4766   3.4866   C.3       1 RES1   0.0000
     2 C2      -3.6502  -5.0609   3.7074   C.3       1 RES1   0.0000
     3 C3      -1.7478  -3.5107   0.6357   C.3       1 RES1   0.0000
     4 C4      -3.0339  -4.9215   5.1075   C.3       1 RES1   0.0000
     5 C5      -0.2303  -1.7956  -0.4572   C.3       1 RES1   0.0000
     6 C6      -2.6188  -4.7459   2.6473   C.2       1 RES1   0.0000
     7 C7      -2.7617  -3.7881   1.7179   C.2       1 RES1   0.0000
     8 C8      -1.2354  -2.0616   0.6764   C.3       1 RES1   0.0000
     9 C9       0.2820  -0.3461  -0.4799   C.3       1 RES1   0.0000
    10 C10      1.2398  -0.0759  -1.6305   C.2       1 RES1   0.0000
    11 N11      1.6357   1.2287  -1.7455   N.am      1 RES1   0.0000
    12 C12      2.5289   1.6756  -2.8139   C.3       1 RES1   0.0000
    13 C13      2.8388   3.1389  -2.6086   C.ar      1 RES1   0.0000
    14 C14      1.8522   4.0368  -2.4562   C.ar      1 RES1   0.0000
    15 C15      2.0505   5.3583  -2.2670   C.ar      1 RES1   0.0000
    16 O16      0.9192   6.1347  -2.1462   O.3       1 RES1   0.0000
    17 C17      0.9935   7.5368  -2.2333   C.3       1 RES1   0.0000
    18 C18      3.3332   5.7921  -2.2581   C.ar      1 RES1   0.0000
    19 O19      3.6833   7.0965  -2.0919   O.3       1 RES1   0.0000
    20 C20      4.3285   4.8992  -2.4045   C.ar      1 RES1   0.0000
    21 C21      4.1002   3.5914  -2.5767   C.ar      1 RES1   0.0000
    22 O22      1.6211  -0.9351  -2.3896   O.2       1 RES1   0.0000
    23 H23     -4.9726  -6.7172   4.2217   H         1 RES1   0.0000
    24 H24     -4.6552  -6.5717   2.4991   H         1 RES1   0.0000
    25 H25     -3.4221  -7.2280   3.5687   H         1 RES1   0.0000
    26 H26     -4.4784  -4.3580   3.6304   H         1 RES1   0.0000
    27 H27     -2.2248  -3.7081  -0.3232   H         1 RES1   0.0000
    28 H28     -0.9044  -4.1944   0.7196   H         1 RES1   0.0000
    29 H29     -2.6560  -3.9130   5.2690   H         1 RES1   0.0000
    30 H30     -3.7719  -5.1249   5.8820   H         1 RES1   0.0000
    31 H31     -2.2072  -5.6162   5.2484   H         1 RES1   0.0000
    32 H32     -0.7091  -2.0169  -1.4100   H         1 RES1   0.0000
    33 H33      0.6141  -2.4747  -0.3492   H         1 RES1   0.0000
    34 H34     -1.7201  -5.3609   2.6450   H         1 RES1   0.0000
    35 H35     -3.6645  -3.1791   1.7110   H         1 RES1   0.0000
    36 H36     -0.7611  -1.8705   1.6379   H         1 RES1   0.0000
    37 H37     -2.0750  -1.3744   0.5826   H         1 RES1   0.0000
    38 H38      0.7981  -0.1233   0.4528   H         1 RES1   0.0000
    39 H39     -0.5615   0.3362  -0.5740   H         1 RES1   0.0000
    40 H40      1.2859   1.9249  -1.0950   H         1 RES1   0.0000
    41 H41      2.0406   1.5505  -3.7792   H         1 RES1   0.0000
    42 H42      3.4364   1.0738  -2.8052   H         1 RES1   0.0000
    43 H43      0.8253   3.6762  -2.4916   H         1 RES1   0.0000
    44 H44     -0.0256   7.9207  -2.2309   H         1 RES1   0.0000
    45 H45      1.4604   7.8354  -3.1707   H         1 RES1   0.0000
    46 H46      1.4965   7.9486  -1.3597   H         1 RES1   0.0000
    47 H47      4.6726   7.1822  -2.0947   H         1 RES1   0.0000
    48 H48      5.3596   5.2490  -2.3866   H         1 RES1   0.0000
    49 H49      4.9395   2.9080  -2.6971   H         1 RES1   0.0000
@<TRIPOS>BOND
     1     1     2    1
     2     1    23    1
     3     1    24    1
     4     1    25    1
     5     2     4    1
     6     2     6    1
     7     2    26    1
     8     7     3    1
     9     3     8    1
    10     3    27    1
    11     3    28    1
    12     4    29    1
    13     4    30    1
    14     4    31    1
    15     8     5    1
    16     5     9    1
    17     5    32    1
    18     5    33    1
    19     6     7    2
    20     6    34    1
    21     7    35    1
    22     8    36    1
    23     8    37    1
    24     9    10    1
    25     9    38    1
    26     9    39    1
    27    10    11   am
    28    10    22    2
    29    11    12    1
    30    11    40    1
    31    12    13    1
    32    12    41    1
    33    12    42    1
    34    13    14   ar
    35    13    21   ar
    36    14    15   ar
    37    14    43    1
    38    15    16    1
    39    15    18   ar
    40    16    17    1
    41    17    44    1
    42    17    45    1
    43    17    46    1
    44    18    19    1
    45    18    20   ar
    46    19    47    1
    47    20    21   ar
    48    20    48    1
    49    21    49    1
@<TRIPOS>SUBSTRUCTURE
     1 RES1        1 GROUP             0 ****  ****    0  
@<TRIPOS>MOLECULE
cholic_acid
    69    72     1     0     0
SMALL
NO_CHARGES
****
Generated from the CSD

@<TRIPOS>ATOM
     1 C1      -0.8119   0.2537  -2.2176   C.3       1 RES1   0.0000
     2 C2      -1.7690  -0.8158  -2.7271   C.3       1 RES1   0.0000
     3 C3      -2.4533  -1.2151  -1.5495   C.3       1 RES1   0.0000
     4 O4      -3.7152  -1.7442  -1.8547   O.3       1 RES1   0.0000
     5 C5      -1.5367  -2.2846  -0.9701   C.3       1 RES1   0.0000
     6 C6      -0.1008  -1.7769  -0.9701   C.3       1 RES1   0.0000
     7 H7       0.4126  -2.1400  -0.0810   H         1 RES1   0.0000
     8 C8       0.6171  -2.2846  -2.2137   C.3       1 RES1   0.0000
     9 C9       2.1584  -1.7637  -2.1612   C.3       1 RES1   0.0000
    10 O10      2.4424  -0.9796  -3.2882   O.3       1 RES1   0.0000
    11 C11      2.2914  -0.9296  -0.8939   C.3       1 RES1   0.0000
    12 C12      3.7213  -0.4201  -0.7693   C.3       1 RES1   0.0000
    13 C13      4.6723  -1.6028  -0.6417   C.3       1 RES1   0.0000
    14 C14      5.8490  -1.0459   0.1486   C.3       1 RES1   0.0000
    15 C15      5.3833   0.5500   0.6652   C.3       1 RES1   0.0000
    16 C16      5.8227   0.8573   2.0907   C.3       1 RES1   0.0000
    17 C17      7.3434   0.9136   2.1515   C.3       1 RES1   0.0000
    18 C18      7.7827   2.2940   2.6217   C.3       1 RES1   0.0000
    19 C19      9.2895   2.3498   2.6819   C.2       1 RES1   0.0000
    20 C20      5.2467   2.2002   2.5203   C.3       1 RES1   0.0000
    21 C21      3.8815   0.3253   0.5491   C.3       1 RES1   0.0000
    22 C22      3.2999  -0.4324   1.7353   C.3       1 RES1   0.0000
    23 C23      3.1723   1.6703   0.4612   C.3       1 RES1   0.0000
    24 O24      3.6219   2.4222  -0.6333   O.3       1 RES1   0.0000
    25 C25      1.5497   1.1506   0.2498   C.3       1 RES1   0.0000
    26 C26      1.3351   0.2537  -0.9622   C.3       1 RES1   0.0000
    27 C27     -0.1008  -0.2539  -0.9701   C.3       1 RES1   0.0000
    28 C28     -0.8256   0.2538   0.2694   C.3       1 RES1   0.0000
    29 O29      9.8427   3.3643   3.0338   O.2       1 RES1   0.0000
    30 O30     10.0126   1.2755   2.3455   O.3       1 RES1   0.0000
    31 H31      1.5244   0.8214  -1.8720   H         1 RES1   0.0000
    32 H32      2.0481  -1.5436  -0.0280   H         1 RES1   0.0000
    33 H33      3.9308   0.2023  -1.6380   H         1 RES1   0.0000
    34 H34     -0.0761   0.4785  -2.9883   H         1 RES1   0.0000
    35 H35     -1.3714   1.1559  -1.9749   H         1 RES1   0.0000
    36 H36     -2.4604  -0.4048  -3.4613   H         1 RES1   0.0000
    37 H37     -1.2655  -1.6388  -3.2322   H         1 RES1   0.0000
    38 H38     -2.6427  -0.3922  -0.8619   H         1 RES1   0.0000
    39 H39     -4.3082  -2.0657  -1.1260   H         1 RES1   0.0000
    40 H40     -1.8419  -2.5094   0.0508   H         1 RES1   0.0000
    41 H41     -1.6029  -3.1868  -1.5763   H         1 RES1   0.0000
    42 H42      0.5969  -3.3733  -2.2316   H         1 RES1   0.0000
    43 H43      0.1246  -1.9114  -3.1104   H         1 RES1   0.0000
    44 H44      2.8562  -2.5997  -2.1570   H         1 RES1   0.0000
    45 H45      3.3465  -0.5855  -3.4037   H         1 RES1   0.0000
    46 H46      4.9943  -1.9477  -1.6232   H         1 RES1   0.0000
    47 H47      4.2106  -2.4617  -0.1569   H         1 RES1   0.0000
    48 H48      6.0538  -1.6761   1.0128   H         1 RES1   0.0000
    49 H49      6.7532  -1.0164  -0.4576   H         1 RES1   0.0000
    50 H50      5.8030   1.3914   0.1159   H         1 RES1   0.0000
    51 H51      5.4615   0.0771   2.7591   H         1 RES1   0.0000
    52 H52      7.7064   0.1605   2.8493   H         1 RES1   0.0000
    53 H53      7.7536   0.7201   1.1614   H         1 RES1   0.0000
    54 H54      7.4197   3.0471   1.9238   H         1 RES1   0.0000
    55 H55      7.3726   2.4876   3.6118   H         1 RES1   0.0000
    56 H56      5.5603   2.4209   3.5395   H         1 RES1   0.0000
    57 H57      4.1594   2.1589   2.4765   H         1 RES1   0.0000
    58 H58      5.6084   2.9806   1.8524   H         1 RES1   0.0000
    59 H59      4.0944  -0.6654   2.4427   H         1 RES1   0.0000
    60 H60      2.5475   0.1837   2.2254   H         1 RES1   0.0000
    61 H61      2.8422  -1.3568   1.3863   H         1 RES1   0.0000
    62 H62      3.3326   2.3261   1.3157   H         1 RES1   0.0000
    63 H63      3.2407   3.3224  -0.8076   H         1 RES1   0.0000
    64 H64      0.9207   2.0325   0.1375   H         1 RES1   0.0000
    65 H65      1.2936   0.5585   1.1271   H         1 RES1   0.0000
    66 H66     -0.1448   0.8589   0.8663   H         1 RES1   0.0000
    67 H67     -1.1704  -0.5936   0.8602   H         1 RES1   0.0000
    68 H68     -1.6795   0.8587  -0.0319   H         1 RES1   0.0000
    69 H69     11.0041   1.3122   2.3850   H         1 RES1   0.0000
@<TRIPOS>BOND
     1     1     2    1
     2     1    27    1
     3     1    34    1
     4     1    35    1
     5     2     3    1
     6     2    36    1
     7     2    37    1
     8     3     4    1
     9     3     5    1
    10     3    38    1
    11     4    39    1
    12     5     6    1
    13     5    40    1
    14     5    41    1
    15     6     7    1
    16     6     8    1
    17     6    27    1
    18     8     9    1
    19     8    42    1
    20     8    43    1
    21     9    10    1
    22     9    11    1
    23     9    44    1
    24    10    45    1
    25    11    12    1
    26    11    26    1
    27    11    32    1
    28    12    13    1
    29    12    21    1
    30    12    33    1
    31    13    14    1
    32    13    46    1
    33    13    47    1
    34    15    14    1
    35    14    48    1
    36    14    49    1
    37    15    16    1
    38    15    21    1
    39    15    50    1
    40    16    17    1
    41    16    20    1
    42    16    51    1
    43    17    18    1
    44    17    52    1
    45    17    53    1
    46    18    19    1
    47    18    54    1
    48    18    55    1
    49    19    29    2
    50    19    30    1
    51    20    56    1
    52    20    57    1
    53    20    58    1
    54    21    22    1
    55    21    23    1
    56    22    59    1
    57    22    60    1
    58    22    61    1
    59    23    24    1
    60    23    25    1
    61    23    62    1
    62    24    63    1
    63    25    26    1
    64    25    64    1
    65    25    65    1
    66    26    27    1
    67    26    31    1
    68    27    28    1
    69    28    66    1
    70    28    67    1
    71    28    68    1
    72    30    69    1
@<TRIPOS>SUBSTRUCTURE
     1 RES1        1 GROUP             0 ****  ****    0  
@<TRIPOS>MOLECULE
folic_acid
    51    53     1     0     0
SMALL
NO_CHARGES
****
Generated from the CSD

@<TRIPOS>ATOM
     1 C1       6.3561 -12.8814  -3.7465   C.2       1 RES1   0.0000
     2 C2       4.8973 -12.4733  -3.8392   C.3       1 RES1   0.0000
     3 C3       3.9378 -13.6705  -3.7452   C.3       1 RES1   0.0000
     4 C4       2.4439 -13.2850  -3.6790   C.3       1 RES1   0.0000
     5 C5       2.0447 -12.5105  -4.9291   C.2       1 RES1   0.0000
     6 O6       1.6910 -13.0005  -5.9751   O.2       1 RES1   0.0000
     7 O7       2.1166 -11.1789  -4.7531   O.3       1 RES1   0.0000
     8 N8       1.6704 -14.5335  -3.5786   N.am      1 RES1   0.0000
     9 C9       0.5857 -14.8047  -2.7884   C.2       1 RES1   0.0000
    10 O10      0.3743 -15.9858  -2.6322   O.2       1 RES1   0.0000
    11 C11     -0.1376 -13.9068  -2.0591   C.ar      1 RES1   0.0000
    12 C12     -0.8296 -14.3263  -0.9804   C.ar      1 RES1   0.0000
    13 C13     -1.5636 -13.4790  -0.2407   C.ar      1 RES1   0.0000
    14 C14     -0.2496 -12.6064  -2.3827   C.ar      1 RES1   0.0000
    15 C15     -0.9838 -11.7551  -1.6484   C.ar      1 RES1   0.0000
    16 C16     -1.6514 -12.1774  -0.5617   C.ar      1 RES1   0.0000
    17 N17     -2.3713 -11.4283   0.1727   N.pl3     1 RES1   0.0000
    18 C18     -2.6161  -9.9838  -0.0264   C.3       1 RES1   0.0000
    19 C19     -3.5749  -9.4321   1.0044   C.ar      1 RES1   0.0000
    20 N20     -4.3768 -10.2266   1.5759   N.ar      1 RES1   0.0000
    21 C21     -5.1917  -9.7723   2.4353   C.ar      1 RES1   0.0000
    22 C22     -6.0583 -10.6146   3.0596   C.2       1 RES1   0.0000
    23 O23     -6.1473 -11.8069   2.8871   O.2       1 RES1   0.0000
    24 N24     -6.8713  -9.9921   3.9468   N.am      1 RES1   0.0000
    25 C25     -6.8527  -8.6745   4.2095   C.2       1 RES1   0.0000
    26 N26     -7.6813  -8.2479   5.0650   N.pl3     1 RES1   0.0000
    27 N27     -6.0181  -7.9519   3.5926   N.2       1 RES1   0.0000
    28 C28     -5.2182  -8.4556   2.7447   C.ar      1 RES1   0.0000
    29 N29     -4.4151  -7.6557   2.1735   N.ar      1 RES1   0.0000
    30 C30     -3.6098  -8.1287   1.3229   C.ar      1 RES1   0.0000
    31 O31      7.1423 -12.5479  -2.8925   O.2       1 RES1   0.0000
    32 O32      6.7214 -13.6659  -4.7766   O.3       1 RES1   0.0000
    33 H33      4.6882 -11.7748  -3.0303   H         1 RES1   0.0000
    34 H34      4.7593 -11.9375  -4.7772   H         1 RES1   0.0000
    35 H35      4.0944 -14.3252  -4.6012   H         1 RES1   0.0000
    36 H36      4.1901 -14.2472  -2.8566   H         1 RES1   0.0000
    37 H37      2.3209 -12.6800  -2.7819   H         1 RES1   0.0000
    38 H38      1.8324 -10.7333  -5.5938   H         1 RES1   0.0000
    39 H39      1.9993 -15.3354  -4.1068   H         1 RES1   0.0000
    40 H40     -0.8103 -15.3673  -0.6613   H         1 RES1   0.0000
    41 H41     -2.0957 -13.8687   0.6259   H         1 RES1   0.0000
    42 H42      0.2082 -12.1973  -3.2821   H         1 RES1   0.0000
    43 H43     -1.0375 -10.7171  -1.9734   H         1 RES1   0.0000
    44 H44     -2.8258 -11.8861   0.9563   H         1 RES1   0.0000
    45 H45     -1.6694  -9.4504   0.0459   H         1 RES1   0.0000
    46 H46     -3.0565  -9.8113  -1.0073   H         1 RES1   0.0000
    47 H47     -7.5559 -10.5325   4.4659   H         1 RES1   0.0000
    48 H48     -8.3285  -8.8773   5.5288   H         1 RES1   0.0000
    49 H49     -7.7073  -7.2604   5.2980   H         1 RES1   0.0000
    50 H50     -2.9344  -7.4215   0.8438   H         1 RES1   0.0000
    51 H51      7.6873 -13.8752  -4.6807   H         1 RES1   0.0000
@<TRIPOS>BOND
     1     1     2    1
     2     1    31    2
     3     1    32    1
     4     2     3    1
     5     2    33    1
     6     2    34    1
     7     3     4    1
     8     3    35    1
     9     3    36    1
    10     4     5    1
    11     4     8    1
    12     4    37    1
    13     5     6    2
    14     5     7    1
    15     7    38    1
    16     8     9   am
    17     8    39    1
    18     9    10    2
    19     9    11    1
    20    11    12   ar
    21    11    14   ar
    22    12    13   ar
    23    12    40    1
    24    13    16   ar
    25    13    41    1
    26    15    14   ar
    27    14    42    1
    28    16    15   ar
    29    15    43    1
    30    16    17    1
    31    17    18    1
    32    17    44    1
    33    18    19    1
    34    18    45    1
    35    18    46    1
    36    19    20   ar
    37    19    30   ar
    38    21    20   ar
    39    22    21    1
    40    28    21   ar
    41    22    23    2
    42    24    22   am
    43    25    24    1
    44    24    47    1
    45    25    26    1
    46    27    25    2
    47    26    48    1
    48    26    49    1
    49    28    27    1
    50    29    28   ar
    51    30    29   ar
    52    30    50    1
    53    32    51    1
@<TRIPOS>SUBSTRUCTURE
     1 RES1        1 GROUP             0 ****  ****    0  
@<TRIPOS>MOLECULE
hesperetin
    36    38     1     0     0
SMALL
NO_CHARGES
****
Generated from the CSD

@<TRIPOS>ATOM
     1 C1       1.6654  -0.3600  -5.2680   C.3       1 RES1   0.0000
     2 O2       0.6426  -0.5196  -4.3132   O.3       1 RES1   0.0000
     3 C3       0.8931  -0.1710  -3.0077   C.ar      1 RES1   0.0000
     4 C4       1.9969   0.4683  -2.5754   C.ar      1 RES1   0.0000
     5 C5       2.1860   0.7682  -1.2818   C.ar      1 RES1   0.0000
     6 C6       1.2817   0.4332  -0.3457   C.ar      1 RES1   0.0000
     7 C7       0.1911  -0.2204  -0.7798   C.ar      1 RES1   0.0000
     8 C8      -0.0141  -0.5232  -2.0730   C.ar      1 RES1   0.0000
     9 O9      -1.1421  -1.1871  -2.4511   O.3       1 RES1   0.0000
    10 C10      1.5205   0.7856   1.1185   C.3       1 RES1   0.0000
    11 C11      1.7752  -0.4118   2.0209   C.3       1 RES1   0.0000
    12 C12      0.4992  -1.1239   2.4308   C.2       1 RES1   0.0000
    13 O13      0.5980  -2.2923   2.7349   O.2       1 RES1   0.0000
    14 C14     -0.6585  -0.4053   2.4445   C.ar      1 RES1   0.0000
    15 C15     -1.8174  -0.9953   2.8134   C.ar      1 RES1   0.0000
    16 O16     -1.9138  -2.3041   3.1822   O.3       1 RES1   0.0000
    17 C17     -2.9427  -0.2611   2.8051   C.ar      1 RES1   0.0000
    18 C18     -2.9598   1.0304   2.4491   C.ar      1 RES1   0.0000
    19 O19     -4.1101   1.7555   2.4320   O.3       1 RES1   0.0000
    20 C20     -1.7901   1.5769   2.0911   C.ar      1 RES1   0.0000
    21 C21     -0.6267   0.9003   2.0917   C.ar      1 RES1   0.0000
    22 O22      0.4931   1.5669   1.6662   O.3       1 RES1   0.0000
    23 H23      1.3006  -0.7549  -6.2151   H         1 RES1   0.0000
    24 H24      2.5459  -0.9305  -4.9762   H         1 RES1   0.0000
    25 H25      1.8931   0.6958  -5.4072   H         1 RES1   0.0000
    26 H26      2.7784   0.7707  -3.2709   H         1 RES1   0.0000
    27 H27      3.0976   1.2918  -0.9977   H         1 RES1   0.0000
    28 H28     -0.5805  -0.5331  -0.0778   H         1 RES1   0.0000
    29 H29     -1.1181  -1.3347  -3.4328   H         1 RES1   0.0000
    30 H30      2.4071   1.4164   1.1624   H         1 RES1   0.0000
    31 H31      2.4571  -1.1043   1.5296   H         1 RES1   0.0000
    32 H32      2.2530  -0.0880   2.9444   H         1 RES1   0.0000
    33 H33     -2.8644  -2.5200   3.3712   H         1 RES1   0.0000
    34 H34     -3.8826  -0.7306   3.0914   H         1 RES1   0.0000
    35 H35     -3.9106   2.6719   2.1057   H         1 RES1   0.0000
    36 H36     -1.7871   2.6207   1.7805   H         1 RES1   0.0000
@<TRIPOS>BOND
     1     1     2    1
     2     1    23    1
     3     1    24    1
     4     1    25    1
     5     2     3    1
     6     3     4   ar
     7     3     8   ar
     8     4     5   ar
     9     4    26    1
    10     5     6   ar
    11     5    27    1
    12     6     7   ar
    13    10     6    1
    14     7     8   ar
    15     7    28    1
    16     8     9    1
    17     9    29    1
    18    10    11    1
    19    10    22    1
    20    10    30    1
    21    11    12    1
    22    11    31    1
    23    11    32    1
    24    12    13    2
    25    12    14    1
    26    14    15   ar
    27    14    21   ar
    28    15    16    1
    29    15    17   ar
    30    16    33    1
    31    17    18   ar
    32    17    34    1
    33    18    19    1
    34    18    20   ar
    35    19    35    1
    36    20    21   ar
    37    20    36    1
    38    21    22    1
@<TRIPOS>SUBSTRUCTURE
     1 RES1        1 GROUP             0 ****  ****    0  
@<TRIPOS>MOLECULE
lactose
    45    46     1     0     0
SMALL
NO_CHARGES
****
Generated from the CSD

@<TRIPOS>ATOM
     1 O1      -3.0585  -3.9131   2.8750   O.3       1 RES1   0.0000
     2 C2      -3.0848  -2.5739   2.4287   C.3       1 RES1   0.0000
     3 C3      -2.1216  -2.3818   1.2611   C.3       1 RES1   0.0000
     4 O4      -1.8163  -1.0133   1.2099   O.3       1 RES1   0.0000
     5 C5      -0.9051  -0.6854   0.1850   C.3       1 RES1   0.0000
     6 O6      -0.7773   0.7180   0.2875   O.3       1 RES1   0.0000
     7 C7      -0.9146   1.4116  -0.9227   C.3       1 RES1   0.0000
     8 C8      -2.3779   1.6759  -1.2472   C.3       1 RES1   0.0000
     9 O9      -3.0974   0.4906  -1.4813   O.3       1 RES1   0.0000
    10 C10     -2.4541   2.5064  -2.5107   C.3       1 RES1   0.0000
    11 O11     -3.7902   2.9100  -2.6953   O.3       1 RES1   0.0000
    12 C12     -1.5953   3.7366  -2.4437   C.3       1 RES1   0.0000
    13 O13     -2.1459   4.6736  -1.5414   O.3       1 RES1   0.0000
    14 O14     -0.2937   3.5092  -1.9675   O.3       1 RES1   0.0000
    15 C15     -0.2167   2.7680  -0.7783   C.3       1 RES1   0.0000
    16 C16      1.2630   2.6430  -0.4258   C.3       1 RES1   0.0000
    17 O17      1.4219   2.1964   0.9066   O.3       1 RES1   0.0000
    18 C18      0.4215  -1.3491   0.4613   C.3       1 RES1   0.0000
    19 O19      1.3614  -0.9893  -0.5196   O.3       1 RES1   0.0000
    20 C20      0.2201  -2.8467   0.4146   C.3       1 RES1   0.0000
    21 O21      1.4263  -3.4784   0.7671   O.3       1 RES1   0.0000
    22 C22     -0.8706  -3.2508   1.3846   C.3       1 RES1   0.0000
    23 O23     -0.3555  -3.1714   2.6910   O.3       1 RES1   0.0000
    24 H24     -3.8026  -4.0712   3.5133   H         1 RES1   0.0000
    25 H25     -4.1095  -2.3302   2.1522   H         1 RES1   0.0000
    26 H26     -2.8026  -1.9608   3.2834   H         1 RES1   0.0000
    27 H27     -2.6329  -2.6495   0.3376   H         1 RES1   0.0000
    28 H28     -1.3153  -0.9915  -0.7762   H         1 RES1   0.0000
    29 H29     -0.4217   0.8626  -1.7237   H         1 RES1   0.0000
    30 H30     -2.8670   2.1866  -0.4190   H         1 RES1   0.0000
    31 H31     -3.9965   0.7376  -1.8228   H         1 RES1   0.0000
    32 H32     -2.1663   1.9042  -3.3712   H         1 RES1   0.0000
    33 H33     -3.9293   3.7531  -2.1894   H         1 RES1   0.0000
    34 H34     -1.5189   4.2291  -3.4120   H         1 RES1   0.0000
    35 H35     -1.4281   5.2927  -1.2455   H         1 RES1   0.0000
    36 H36     -0.6929   3.3438   0.0139   H         1 RES1   0.0000
    37 H37      1.7768   1.9397  -1.0795   H         1 RES1   0.0000
    38 H38      1.7593   3.6102  -0.4905   H         1 RES1   0.0000
    39 H39      1.0951   1.2616   0.9804   H         1 RES1   0.0000
    40 H40      0.8240  -1.0380   1.4242   H         1 RES1   0.0000
    41 H41      2.1432  -1.5961  -0.4376   H         1 RES1   0.0000
    42 H42     -0.0353  -3.1611  -0.5963   H         1 RES1   0.0000
    43 H43      1.4578  -3.5571   1.7565   H         1 RES1   0.0000
    44 H44     -1.1170  -4.2991   1.2225   H         1 RES1   0.0000
    45 H45     -1.0026  -3.5907   3.3167   H         1 RES1   0.0000
@<TRIPOS>BOND
     1     1     2    1
     2     1    24    1
     3     3     2    1
     4     2    25    1
     5     2    26    1
     6     3     4    1
     7     3    22    1
     8     3    27    1
     9     4     5    1
    10     5     6    1
    11     5    18    1
    12     5    28    1
    13     7     6    1
    14     7     8    1
    15     7    15    1
    16     7    29    1
    17     8     9    1
    18     8    10    1
    19     8    30    1
    20     9    31    1
    21    10    11    1
    22    10    12    1
    23    10    32    1
    24    11    33    1
    25    12    13    1
    26    12    14    1
    27    12    34    1
    28    13    35    1
    29    14    15    1
    30    15    16    1
    31    15    36    1
    32    16    17    1
    33    16    37    1
    34    16    38    1
    35    17    39    1
    36    18    19    1
    37    18    20    1
    38    18    40    1
    39    19    41    1
    40    20    21    1
    41    20    22    1
    42    20    42    1
    43    21    43    1
    44    22    23    1
    45    22    44    1
    46    23    45    1
@<TRIPOS>SUBSTRUCTURE
     1 RES1        1 GROUP             0 ****  ****    0  
@<TRIPOS>MOLECULE
maltitol
    47    47     1     0     0
SMALL
NO_CHARGES
****
Generated from the CSD

@<TRIPOS>ATOM
     1 O1       2.4900   0.5609   2.3354   O.3       1 RES1   0.0000
     2 C2       0.4080   0.6723   1.0643   C.3       1 RES1   0.0000
     3 O3       2.9630   3.1419   2.3502   O.3       1 RES1   0.0000
     4 C4       1.6529   2.7387   2.0033   C.3       1 RES1   0.0000
     5 C5       1.7426   1.3325   1.4327   C.3       1 RES1   0.0000
     6 O6       0.6490  -0.2612   0.0423   O.3       1 RES1   0.0000
     7 C7      -2.3311   1.3589  -2.4629   C.3       1 RES1   0.0000
     8 C8      -0.3583  -0.3105  -0.9526   C.3       1 RES1   0.0000
     9 O9      -0.0784   0.8055  -1.7717   O.3       1 RES1   0.0000
    10 C10     -0.9282   0.9324  -2.8764   C.3       1 RES1   0.0000
    11 O11     -3.0632   1.7658  -3.6027   O.3       1 RES1   0.0000
    12 C12     -0.8473  -0.3063  -3.7597   C.3       1 RES1   0.0000
    13 O13      0.4236  -0.3351  -4.3741   O.3       1 RES1   0.0000
    14 C14     -1.0273  -1.6052  -2.9930   C.3       1 RES1   0.0000
    15 C15     -0.4658   0.0702   2.1784   C.3       1 RES1   0.0000
    16 O16     -2.3801  -1.7755  -2.6423   O.3       1 RES1   0.0000
    17 C17     -0.1847  -1.5946  -1.7313   C.3       1 RES1   0.0000
    18 O18      1.1782  -1.7106  -2.0644   O.3       1 RES1   0.0000
    19 C19      0.9348  -1.8525   3.1965   C.3       1 RES1   0.0000
    20 O20     -0.3236   0.8301   3.3571   O.3       1 RES1   0.0000
    21 C21     -0.3682  -1.4072   2.5660   C.3       1 RES1   0.0000
    22 O22     -0.6768  -2.2525   1.4844   O.3       1 RES1   0.0000
    23 O23      1.2059  -1.0175   4.3048   O.3       1 RES1   0.0000
    24 H24      3.3233   1.0635   2.5330   H         1 RES1   0.0000
    25 H25     -0.1528   1.5043   0.6410   H         1 RES1   0.0000
    26 H26      2.9449   4.0519   2.7473   H         1 RES1   0.0000
    27 H27      1.0533   2.8052   2.9099   H         1 RES1   0.0000
    28 H28      1.2686   3.4505   1.2742   H         1 RES1   0.0000
    29 H29      2.3581   1.4100   0.5377   H         1 RES1   0.0000
    30 H30     -2.2988   2.2126  -1.7875   H         1 RES1   0.0000
    31 H31     -2.9051   0.5676  -1.9831   H         1 RES1   0.0000
    32 H32     -1.3474  -0.2405  -0.5024   H         1 RES1   0.0000
    33 H33     -0.5268   1.7689  -3.4466   H         1 RES1   0.0000
    34 H34     -4.0029   1.9544  -3.3429   H         1 RES1   0.0000
    35 H35     -1.5687  -0.2438  -4.5731   H         1 RES1   0.0000
    36 H36      1.1195  -0.4585  -3.6766   H         1 RES1   0.0000
    37 H37     -0.7747  -2.4587  -3.6205   H         1 RES1   0.0000
    38 H38     -1.5026   0.2095   1.8757   H         1 RES1   0.0000
    39 H39     -2.6099  -2.7416  -2.6420   H         1 RES1   0.0000
    40 H40     -0.4241  -2.4605  -1.1158   H         1 RES1   0.0000
    41 H41      1.7061  -1.5603  -1.2369   H         1 RES1   0.0000
    42 H42      0.8604  -2.8738   3.5671   H         1 RES1   0.0000
    43 H43      1.7711  -1.8037   2.5007   H         1 RES1   0.0000
    44 H44     -0.5410   0.2790   4.1540   H         1 RES1   0.0000
    45 H45     -1.1535  -1.6043   3.2943   H         1 RES1   0.0000
    46 H46     -0.8766  -3.1641   1.8238   H         1 RES1   0.0000
    47 H47      1.5872  -0.1618   3.9756   H         1 RES1   0.0000
@<TRIPOS>BOND
     1     5     1    1
     2     1    24    1
     3     5     2    1
     4     2     6    1
     5     2    15    1
     6     2    25    1
     7     3     4    1
     8     3    26    1
     9     4     5    1
    10     4    27    1
    11     4    28    1
    12     5    29    1
    13     8     6    1
    14    10     7    1
    15     7    11    1
    16     7    30    1
    17     7    31    1
    18     8     9    1
    19     8    17    1
    20     8    32    1
    21     9    10    1
    22    10    12    1
    23    10    33    1
    24    11    34    1
    25    12    13    1
    26    12    14    1
    27    12    35    1
    28    13    36    1
    29    14    16    1
    30    14    17    1
    31    14    37    1
    32    15    20    1
    33    15    21    1
    34    15    38    1
    35    16    39    1
    36    17    18    1
    37    17    40    1
    38    18    41    1
    39    21    19    1
    40    19    23    1
    41    19    42    1
    42    19    43    1
    43    20    44    1
    44    21    22    1
    45    21    45    1
    46    22    46    1
    47    23    47    1
@<TRIPOS>SUBSTRUCTURE
     1 RES1        1 GROUP             0 ****  ****    0  
@<TRIPOS>MOLECULE
mannitol
    26    25     1     0     0
SMALL
NO_CHARGES
****
Generated from the CSD

@<TRIPOS>ATOM
     1 O1      -2.4799   2.4441   0.8305   O.3       1 RES1   0.0000
     2 C2      -1.3159   1.6837   0.5694   C.3       1 RES1   0.0000
     3 C3      -1.5041   0.2610   1.0625   C.3       1 RES1   0.0000
     4 O4      -2.4873  -0.3933   0.2977   O.3       1 RES1   0.0000
     5 C5      -0.2516  -0.6091   1.0861   C.3       1 RES1   0.0000
     6 O6      -0.5481  -1.7084   1.9217   O.3       1 RES1   0.0000
     7 C7       0.2141  -1.2298  -0.2254   C.3       1 RES1   0.0000
     8 O8       1.1898  -2.1967   0.0956   O.3       1 RES1   0.0000
     9 C9       0.8023  -0.3447  -1.3146   C.3       1 RES1   0.0000
    10 O10      1.1255  -1.2051  -2.3864   O.3       1 RES1   0.0000
    11 C11      2.0610   0.4246  -0.9446   C.3       1 RES1   0.0000
    12 O12      1.7479   1.5321  -0.1285   O.3       1 RES1   0.0000
    13 H13     -2.3394   3.3706   0.5021   H         1 RES1   0.0000
    14 H14     -0.5043   2.1768   1.1025   H         1 RES1   0.0000
    15 H15     -1.1318   1.7375  -0.5026   H         1 RES1   0.0000
    16 H16     -1.8974   0.3231   2.0761   H         1 RES1   0.0000
    17 H17     -2.7050  -1.2465   0.7567   H         1 RES1   0.0000
    18 H18      0.5678  -0.0826   1.5733   H         1 RES1   0.0000
    19 H19      0.2092  -2.3481   1.8631   H         1 RES1   0.0000
    20 H20     -0.6104  -1.7936  -0.6593   H         1 RES1   0.0000
    21 H21      1.5728  -2.5519  -0.7489   H         1 RES1   0.0000
    22 H22      0.0494   0.3365  -1.7084   H         1 RES1   0.0000
    23 H23      0.3480  -1.2877  -2.9985   H         1 RES1   0.0000
    24 H24      2.7838  -0.1917  -0.4121   H         1 RES1   0.0000
    25 H25      2.5441   0.8309  -1.8320   H         1 RES1   0.0000
    26 H26      2.5784   2.0326   0.0857   H         1 RES1   0.0000
@<TRIPOS>BOND
     1     1     2    1
     2     1    13    1
     3     2     3    1
     4     2    14    1
     5     2    15    1
     6     3     4    1
     7     3     5    1
     8     3    16    1
     9     4    17    1
    10     5     6    1
    11     5     7    1
    12     5    18    1
    13     6    19    1
    14     7     8    1
    15     7     9    1
    16     7    20    1
    17     8    21    1
    18     9    10    1
    19     9    11    1
    20     9    22    1
    21    10    23    1
    22    11    12    1
    23    11    24    1
    24    11    25    1
    25    12    26    1
@<TRIPOS>SUBSTRUCTURE
     1 RES1        1 GROUP             0 ****  ****    0  
@<TRIPOS>MOLECULE
pamoic_acid
    45    48     1     0     0
SMALL
NO_CHARGES
****
Generated from the CSD

@<TRIPOS>ATOM
     1 C1      -1.5547   2.4168   4.5094   C.3       1 RES1   0.0000
     2 H1      -2.2098   3.1054   5.0411   H         1 RES1   0.0000
     3 C2      -2.2095   1.5735   3.4111   C.ar      1 RES1   0.0000
     4 C3      -1.3945   0.7137   2.7507   C.ar      1 RES1   0.0000
     5 C4      -1.8995  -0.0688   1.7701   C.ar      1 RES1   0.0000
     6 C5      -1.1615  -0.9702   1.0521   C.2       1 RES1   0.0000
     7 C6      -3.2080   0.0273   1.4781   C.ar      1 RES1   0.0000
     8 H2      -3.6447  -0.5931   0.6969   H         1 RES1   0.0000
     9 C7      -4.0213   0.8779   2.1234   C.ar      1 RES1   0.0000
    10 C8      -5.3236   0.9288   1.7825   C.ar      1 RES1   0.0000
    11 H3      -5.7292   0.2939   0.9962   H         1 RES1   0.0000
    12 C9      -6.1656   1.7660   2.4022   C.ar      1 RES1   0.0000
    13 H4      -7.2176   1.8039   2.1235   H         1 RES1   0.0000
    14 C10     -5.6908   2.5584   3.3702   C.ar      1 RES1   0.0000
    15 H5      -6.3629   3.2457   3.8819   H         1 RES1   0.0000
    16 C11     -4.3924   2.5027   3.7042   C.ar      1 RES1   0.0000
    17 H6      -4.1014   3.1855   4.5010   H         1 RES1   0.0000
    18 C12     -3.5243   1.6652   3.0988   C.ar      1 RES1   0.0000
    19 O1      -0.0737   0.6998   3.0972   O.3       1 RES1   0.0000
    20 O2       0.0211  -1.1666   1.2193   O.2       1 RES1   0.0000
    21 O3      -1.7022  -1.7415   0.0730   O.3       1 RES1   0.0000
    22 H7       0.5237   0.2468   2.4460   H         1 RES1   0.0000
    23 H8      -0.9853  -2.3175  -0.3017   H         1 RES1   0.0000
    24 H1A     -0.8996   3.1054   3.9777   H         1 RES1   0.0000
    25 C2A     -0.8998   1.5735   5.6077   C.ar      1 RES1   0.0000
    26 C3A     -1.7148   0.7137   6.2681   C.ar      1 RES1   0.0000
    27 C4A     -1.2099  -0.0688   7.2487   C.ar      1 RES1   0.0000
    28 C5A     -1.9478  -0.9702   7.9668   C.2       1 RES1   0.0000
    29 C6A      0.0987   0.0273   7.5407   C.ar      1 RES1   0.0000
    30 H2A      0.5354  -0.5931   8.3219   H         1 RES1   0.0000
    31 C7A      0.9120   0.8779   6.8954   C.ar      1 RES1   0.0000
    32 C8A      2.2143   0.9288   7.2363   C.ar      1 RES1   0.0000
    33 H3A      2.6199   0.2939   8.0226   H         1 RES1   0.0000
    34 C9A      3.0563   1.7660   6.6166   C.ar      1 RES1   0.0000
    35 H4A      4.1083   1.8040   6.8954   H         1 RES1   0.0000
    36 C10A     2.5815   2.5584   5.6487   C.ar      1 RES1   0.0000
    37 H5A      3.2536   3.2457   5.1370   H         1 RES1   0.0000
    38 C11A     1.2831   2.5027   5.3146   C.ar      1 RES1   0.0000
    39 H6A      0.9921   3.1856   4.5178   H         1 RES1   0.0000
    40 C12A     0.4149   1.6652   5.9200   C.ar      1 RES1   0.0000
    41 O1A     -3.0356   0.6998   5.9216   O.3       1 RES1   0.0000
    42 O2A     -3.1304  -1.1666   7.7996   O.2       1 RES1   0.0000
    43 O3A     -1.4071  -1.7415   8.9458   O.3       1 RES1   0.0000
    44 H7A     -3.6330   0.2469   6.5728   H         1 RES1   0.0000
    45 H8A     -2.1239  -2.3176   9.3204   H         1 RES1   0.0000
@<TRIPOS>BOND
     1     1     2    1
     2     1     3    1
     3     1    24    1
     4     1    25    1
     5     3     4   ar
     6     3    18   ar
     7     4     5   ar
     8     4    19    1
     9     5     6    1
    10     5     7   ar
    11     6    20    2
    12     6    21    1
    13     7     8    1
    14     7     9   ar
    15     9    10   ar
    16     9    18   ar
    17    10    11    1
    18    10    12   ar
    19    12    13    1
    20    12    14   ar
    21    14    15    1
    22    14    16   ar
    23    16    17    1
    24    16    18   ar
    25    19    22    1
    26    21    23    1
    27    25    26   ar
    28    25    40   ar
    29    26    27   ar
    30    26    41    1
    31    27    28    1
    32    27    29   ar
    33    28    42    2
    34    28    43    1
    35    29    30    1
    36    29    31   ar
    37    31    32   ar
    38    31    40   ar
    39    32    33    1
    40    32    34   ar
    41    34    35    1
    42    34    36   ar
    43    36    37    1
    44    36    38   ar
    45    38    39    1
    46    38    40   ar
    47    41    44    1
    48    43    45    1
@<TRIPOS>SUBSTRUCTURE
     1 RES1        1 GROUP             0 A     ****    0  
@<TRIPOS>MOLECULE
riboflavin
    47    49     1     0     0
SMALL
NO_CHARGES
****
Generated from the CSD

@<TRIPOS>ATOM
     1 C1       3.2851   2.7209   3.0985   C.3       1 RES1   0.0000
     2 C2       3.5117   1.4994   2.2318   C.ar      1 RES1   0.0000
     3 C3       2.8341   1.3623   1.0766   C.ar      1 RES1   0.0000
     4 C4       2.9818   0.3050   0.2537   C.ar      1 RES1   0.0000
     5 C5       3.8416  -0.6539   0.6488   C.ar      1 RES1   0.0000
     6 N6       4.0330  -1.6925  -0.0478   N.2       1 RES1   0.0000
     7 C7       3.4145  -1.8570  -1.1407   C.2       1 RES1   0.0000
     8 C8       3.6570  -3.0031  -1.8360   C.2       1 RES1   0.0000
     9 N9       2.9492  -3.1122  -2.9975   N.am      1 RES1   0.0000
    10 O10      4.4119  -3.8929  -1.5174   O.2       1 RES1   0.0000
    11 C11      2.5438  -0.9309  -1.6093   C.2       1 RES1   0.0000
    12 N12      2.3930   0.0961  -0.8624   N.pl3     1 RES1   0.0000
    13 C13      1.4318   1.1349  -1.3560   C.3       1 RES1   0.0000
    14 C14      0.0327   0.9970  -0.7365   C.3       1 RES1   0.0000
    15 O15     -0.6128   2.2474  -0.8245   O.3       1 RES1   0.0000
    16 C16     -0.8445  -0.0576  -1.4014   C.3       1 RES1   0.0000
    17 O17     -0.4445  -1.3517  -1.0129   O.3       1 RES1   0.0000
    18 C18     -2.3421   0.0313  -1.1270   C.3       1 RES1   0.0000
    19 O19     -2.9313  -1.0805  -1.7651   O.3       1 RES1   0.0000
    20 C20     -2.7450   0.0016   0.3383   C.3       1 RES1   0.0000
    21 O21     -2.4261   1.2282   0.9613   O.3       1 RES1   0.0000
    22 N22      1.9398  -1.1114  -2.7125   N.2       1 RES1   0.0000
    23 C23      2.0849  -2.1459  -3.4245   C.2       1 RES1   0.0000
    24 O24      1.4948  -2.3227  -4.4659   O.2       1 RES1   0.0000
    25 C25      4.5248  -0.5310   1.7997   C.ar      1 RES1   0.0000
    26 C26      4.3791   0.5368   2.6016   C.ar      1 RES1   0.0000
    27 C27      5.1841   0.6379   3.8791   C.3       1 RES1   0.0000
    28 H28      3.1199   2.4434   4.1385   H         1 RES1   0.0000
    29 H29      2.4125   3.2992   2.7986   H         1 RES1   0.0000
    30 H30      4.1466   3.3848   3.0436   H         1 RES1   0.0000
    31 H31      2.1426   2.1703   0.8425   H         1 RES1   0.0000
    32 H32      3.0718  -3.9442  -3.5657   H         1 RES1   0.0000
    33 H33      1.8394   2.1322  -1.1973   H         1 RES1   0.0000
    34 H34      1.3451   1.1687  -2.4410   H         1 RES1   0.0000
    35 H35      0.1238   0.7861   0.3280   H         1 RES1   0.0000
    36 H36     -1.3341   2.2910  -0.1434   H         1 RES1   0.0000
    37 H37     -0.7069  -0.0025  -2.4803   H         1 RES1   0.0000
    38 H38     -1.0882  -1.9833  -1.4286   H         1 RES1   0.0000
    39 H39     -2.7642   0.9124  -1.6081   H         1 RES1   0.0000
    40 H40     -3.8663  -0.8752  -2.0291   H         1 RES1   0.0000
    41 H41     -3.8216  -0.1256   0.4415   H         1 RES1   0.0000
    42 H42     -2.2456  -0.7949   0.8880   H         1 RES1   0.0000
    43 H43     -2.7613   1.2298   1.8960   H         1 RES1   0.0000
    44 H44      5.2186  -1.3172   2.0936   H         1 RES1   0.0000
    45 H45      5.9826  -0.1008   3.9312   H         1 RES1   0.0000
    46 H46      4.5414   0.4815   4.7442   H         1 RES1   0.0000
    47 H47      5.6642   1.6114   3.9672   H         1 RES1   0.0000
@<TRIPOS>BOND
     1     1     2    1
     2     1    28    1
     3     1    29    1
     4     1    30    1
     5     2     3   ar
     6     2    26   ar
     7     3     4   ar
     8     3    31    1
     9     4     5   ar
    10     4    12    1
    11     6     5    1
    12     5    25   ar
    13     7     6    2
    14     8     7    1
    15    11     7    1
    16     9     8   am
    17     8    10    2
    18    23     9   am
    19     9    32    1
    20    12    11    1
    21    11    22    2
    22    12    13    1
    23    13    14    1
    24    13    33    1
    25    13    34    1
    26    14    15    1
    27    14    16    1
    28    14    35    1
    29    15    36    1
    30    16    17    1
    31    16    18    1
    32    16    37    1
    33    17    38    1
    34    18    19    1
    35    18    20    1
    36    18    39    1
    37    19    40    1
    38    20    21    1
    39    20    41    1
    40    20    42    1
    41    21    43    1
    42    22    23    1
    43    23    24    2
    44    25    26   ar
    45    25    44    1
    46    26    27    1
    47    27    45    1
    48    27    46    1
    49    27    47    1
@<TRIPOS>SUBSTRUCTURE
     1 RES1        1 GROUP             0 ****  ****    0  
@<TRIPOS>MOLECULE
t-butylhydroxyanisole
    29    29     1     0     0
SMALL
NO_CHARGES
****
Generated from the CSD

@<TRIPOS>ATOM
     1 C1      -2.4050   0.9819   0.0443   C.ar      1 RES1   0.0000
     2 C2      -2.3490  -0.4097   0.0322   C.ar      1 RES1   0.0000
     3 C3      -1.1409  -1.1127   0.0198   C.ar      1 RES1   0.0000
     4 C4       0.0656  -0.3873   0.0125   C.ar      1 RES1   0.0000
     5 C5      -0.0337   1.0131   0.0281   C.ar      1 RES1   0.0000
     6 C6      -1.2309   1.7422   0.0492   C.ar      1 RES1   0.0000
     7 O7      -1.1753   3.1139   0.0571   O.3       1 RES1   0.0000
     8 O8      -1.1921  -2.4709   0.0035   O.3       1 RES1   0.0000
     9 C9       1.4367  -1.0847  -0.0168   C.3       1 RES1   0.0000
    10 C10     -2.3861   3.8331   0.0271   C.3       1 RES1   0.0000
    11 C11      2.6398  -0.1079  -0.0020   C.3       1 RES1   0.0000
    12 C12      1.5758  -1.9105  -1.3155   C.3       1 RES1   0.0000
    13 C13      1.6082  -1.9822   1.2296   C.3       1 RES1   0.0000
    14 H14     -3.3885   1.4495   0.0500   H         1 RES1   0.0000
    15 H15     -3.2816  -0.9720   0.0297   H         1 RES1   0.0000
    16 H16      0.8666   1.6257   0.0228   H         1 RES1   0.0000
    17 H17     -0.2742  -2.8476  -0.0359   H         1 RES1   0.0000
    18 H18     -2.1430   4.8946   0.0284   H         1 RES1   0.0000
    19 H19     -2.9357   3.6103  -0.8863   H         1 RES1   0.0000
    20 H20     -2.9761   3.6186   0.9169   H         1 RES1   0.0000
    21 H21      2.6502   0.5446  -0.8738   H         1 RES1   0.0000
    22 H22      2.6595   0.5036   0.8989   H         1 RES1   0.0000
    23 H23      3.5874  -0.6442  -0.0210   H         1 RES1   0.0000
    24 H24      1.4772  -1.2717  -2.1919   H         1 RES1   0.0000
    25 H25      0.8342  -2.7020  -1.4125   H         1 RES1   0.0000
    26 H26      2.5472  -2.3993  -1.3729   H         1 RES1   0.0000
    27 H27      1.5165  -1.3959   2.1427   H         1 RES1   0.0000
    28 H28      0.8825  -2.7916   1.2935   H         1 RES1   0.0000
    29 H29      2.5868  -2.4597   1.2431   H         1 RES1   0.0000
@<TRIPOS>BOND
     1     1     2   ar
     2     1     6   ar
     3     1    14    1
     4     2     3   ar
     5     2    15    1
     6     3     4   ar
     7     3     8    1
     8     4     5   ar
     9     4     9    1
    10     5     6   ar
    11     5    16    1
    12     6     7    1
    13     7    10    1
    14     8    17    1
    15     9    11    1
    16     9    12    1
    17     9    13    1
    18    10    18    1
    19    10    19    1
    20    10    20    1
    21    11    21    1
    22    11    22    1
    23    11    23    1
    24    12    24    1
    25    12    25    1
    26    12    26    1
    27    13    27    1
    28    13    28    1
    29    13    29    1
@<TRIPOS>SUBSTRUCTURE
     1 RES1        1 GROUP             0 ****  ****    0  
@<TRIPOS>MOLECULE
thymidine
    31    32     1     0     0
SMALL
NO_CHARGES
****
Generated from the CSD

@<TRIPOS>ATOM
     1 N1       0.3073   0.5578   0.6839   N.am      1 RES1   0.0000
     2 C2      -0.7364   0.2634   1.5277   C.2       1 RES1   0.0000
     3 N3      -1.1016   1.2313   2.4212   N.am      1 RES1   0.0000
     4 C4      -0.5005   2.4531   2.5359   C.2       1 RES1   0.0000
     5 C5       0.5184   2.7155   1.6772   C.2       1 RES1   0.0000
     6 C6       0.8849   1.7765   0.7862   C.2       1 RES1   0.0000
     7 C7       0.7495  -0.4121  -0.3347   C.3       1 RES1   0.0000
     8 C8       1.2115   4.0561   1.7444   C.3       1 RES1   0.0000
     9 C9      -0.8293  -1.6682  -1.4030   C.3       1 RES1   0.0000
    10 C10     -1.3309  -2.0384  -2.7880   C.3       1 RES1   0.0000
    11 O11     -0.8903   3.2342   3.3710   O.2       1 RES1   0.0000
    12 C12      0.1006  -2.6874  -0.7663   C.3       1 RES1   0.0000
    13 C13      0.9872  -1.8473   0.1465   C.3       1 RES1   0.0000
    14 O14     -1.3346  -0.7838   1.5297   O.2       1 RES1   0.0000
    15 O15     -0.1175  -0.4669  -1.4487   O.3       1 RES1   0.0000
    16 O16     -2.2726  -1.0822  -3.2326   O.3       1 RES1   0.0000
    17 O17      0.8980  -3.3178  -1.7398   O.3       1 RES1   0.0000
    18 H18     -1.8730   1.0233   3.0472   H         1 RES1   0.0000
    19 H19      1.6972   2.0013   0.0966   H         1 RES1   0.0000
    20 H20      1.7002  -0.0687  -0.7398   H         1 RES1   0.0000
    21 H21      2.0057   4.1558   1.0060   H         1 RES1   0.0000
    22 H22      0.5004   4.8609   1.5640   H         1 RES1   0.0000
    23 H23      1.6616   4.2035   2.7250   H         1 RES1   0.0000
    24 H24     -1.6944  -1.5204  -0.7583   H         1 RES1   0.0000
    25 H25     -0.5272  -2.0642  -3.5223   H         1 RES1   0.0000
    26 H26     -1.8340  -3.0041  -2.7742   H         1 RES1   0.0000
    27 H27     -0.4366  -3.4735  -0.2377   H         1 RES1   0.0000
    28 H28      0.7279  -1.9894   1.1946   H         1 RES1   0.0000
    29 H29      2.0333  -2.1377   0.0609   H         1 RES1   0.0000
    30 H30     -2.5525  -1.3092  -4.1579   H         1 RES1   0.0000
    31 H31      1.4416  -4.0276  -1.3076   H         1 RES1   0.0000
@<TRIPOS>BOND
     1     1     2   am
     2     6     1    1
     3     7     1    1
     4     2     3   am
     5     2    14    2
     6     3     4   am
     7     3    18    1
     8     5     4    1
     9     4    11    2
    10     5     6    2
    11     5     8    1
    12     6    19    1
    13     7    13    1
    14     7    15    1
    15     7    20    1
    16     8    21    1
    17     8    22    1
    18     8    23    1
    19     9    10    1
    20     9    12    1
    21    15     9    1
    22     9    24    1
    23    10    16    1
    24    10    25    1
    25    10    26    1
    26    12    13    1
    27    12    17    1
    28    12    27    1
    29    13    28    1
    30    13    29    1
    31    16    30    1
    32    17    31    1
@<TRIPOS>SUBSTRUCTURE
     1 RES1        1 GROUP             0 ****  ****    0  
