@<TRIPOS>MOLECULE
(+)-camphoric_acid
    30    30     1     0     0
SMALL
NO_CHARGES
****
Generated from the CSD

@<TRIPOS>ATOM
     1 C1      -0.9808  -2.0436   0.7560   C.2       1 RES1   0.0000
     2 C2      -0.3981  -0.9603  -0.1502   C.3       1 RES1   0.0000
     3 C3      -1.4295  -0.3279  -1.1098   C.3       1 RES1   0.0000
     4 C4      -0.7488   0.9588  -1.5879   C.3       1 RES1   0.0000
     5 C5      -0.0196   1.4755  -0.3340   C.3       1 RES1   0.0000
     6 C6       1.2410   2.2849  -0.5939   C.2       1 RES1   0.0000
     7 C7       0.1286   0.2733   0.6487   C.3       1 RES1   0.0000
     8 C8      -0.7564   0.5448   1.8939   C.3       1 RES1   0.0000
     9 C9       1.5670   0.0921   1.1765   C.3       1 RES1   0.0000
    10 C10      0.6958  -1.6738  -0.9767   C.3       1 RES1   0.0000
    11 O11     -0.3722  -2.6661   1.5939   O.2       1 RES1   0.0000
    12 O12     -2.2807  -2.2994   0.5266   O.3       1 RES1   0.0000
    13 O13      1.6086   3.2449   0.0412   O.2       1 RES1   0.0000
    14 O14      1.9812   1.8036  -1.6088   O.3       1 RES1   0.0000
    15 H15     -1.7088  -0.9818  -1.9346   H         1 RES1   0.0000
    16 H16     -2.3399  -0.0477  -0.5821   H         1 RES1   0.0000
    17 H17     -1.4623   1.6787  -1.9862   H         1 RES1   0.0000
    18 H18     -0.0627   0.7155  -2.3978   H         1 RES1   0.0000
    19 H19     -0.6939   2.2014   0.1180   H         1 RES1   0.0000
    20 H20     -0.6616  -0.2353   2.6478   H         1 RES1   0.0000
    21 H21     -0.4713   1.4741   2.3849   H         1 RES1   0.0000
    22 H22     -1.8125   0.6253   1.6409   H         1 RES1   0.0000
    23 H23      1.8769   0.9421   1.7827   H         1 RES1   0.0000
    24 H24      1.6456  -0.7914   1.8083   H         1 RES1   0.0000
    25 H25      2.3038  -0.0143   0.3817   H         1 RES1   0.0000
    26 H26      1.2433  -0.9937  -1.6276   H         1 RES1   0.0000
    27 H27      1.4319  -2.1728  -0.3481   H         1 RES1   0.0000
    28 H28      0.2612  -2.4440  -1.6121   H         1 RES1   0.0000
    29 H29     -2.5557  -3.0347   1.1347   H         1 RES1   0.0000
    30 H30      2.8055   2.3536  -1.6730   H         1 RES1   0.0000
@<TRIPOS>BOND
     1     1     2    1
     2     1    11    2
     3     1    12    1
     4     2     3    1
     5     2     7    1
     6     2    10    1
     7     3     4    1
     8     3    15    1
     9     3    16    1
    10     4     5    1
    11     4    17    1
    12     4    18    1
    13     5     6    1
    14     5     7    1
    15     5    19    1
    16     6    13    2
    17     6    14    1
    18     7     8    1
    19     7     9    1
    20     8    20    1
    21     8    21    1
    22     8    22    1
    23     9    23    1
    24     9    24    1
    25     9    25    1
    26    10    26    1
    27    10    27    1
    28    10    28    1
    29    12    29    1
    30    14    30    1
@<TRIPOS>SUBSTRUCTURE
     1 RES1        1 GROUP             0 ****  ****    0  
