@<TRIPOS>MOLECULE
(-)-camphorsulfonic_acid
    31    32     1     0     0
SMALL
NO_CHARGES
****
Generated from the CSD

@<TRIPOS>ATOM
     1 C1       1.6132   0.2963   0.7285   C.3       1 RES1   0.0000
     2 C2       0.6529   1.0706  -0.1956   C.3       1 RES1   0.0000
     3 C3       1.5224   1.4384  -1.4141   C.3       1 RES1   0.0000
     4 C4      -0.0501   2.2697   0.4928   C.3       1 RES1   0.0000
     5 C5      -1.0001   2.8009  -0.6015   C.3       1 RES1   0.0000
     6 C6      -1.4658   1.4914  -1.2838   C.3       1 RES1   0.0000
     7 C7      -0.6862   0.3668  -0.5286   C.3       1 RES1   0.0000
     8 C8      -0.7283  -0.9902  -1.2567   C.3       1 RES1   0.0000
     9 S9      -0.0394  -2.5759  -0.8315   S.o2      1 RES1   0.0000
    10 O10      1.2740  -2.5343  -1.6379   O.3       1 RES1   0.0000
    11 O11     -0.6795  -3.5850  -1.5874   O.2       1 RES1   0.0000
    12 O12      0.2452  -2.7603   0.5405   O.2       1 RES1   0.0000
    13 C13     -1.3587   0.3339   0.8411   C.2       1 RES1   0.0000
    14 O14     -2.1062  -0.5166   1.2673   O.2       1 RES1   0.0000
    15 C15     -0.9222   1.5909   1.5636   C.3       1 RES1   0.0000
    16 H        2.0793  -0.5289   0.1921   H         1 RES1   0.0000
    17 H        2.4111   0.9540   1.0703   H         1 RES1   0.0000
    18 H        1.1441  -0.1296   1.6142   H         1 RES1   0.0000
    19 H        1.9089   0.5359  -1.8853   H         1 RES1   0.0000
    20 H        1.0091   2.0067  -2.1884   H         1 RES1   0.0000
    21 H        2.3757   2.0348  -1.0947   H         1 RES1   0.0000
    22 H        0.6073   3.0328   0.9068   H         1 RES1   0.0000
    23 H       -0.4796   3.4505  -1.3037   H         1 RES1   0.0000
    24 H       -1.8205   3.3875  -0.1908   H         1 RES1   0.0000
    25 H       -1.2051   1.4841  -2.3411   H         1 RES1   0.0000
    26 H       -2.5436   1.3402  -1.2456   H         1 RES1   0.0000
    27 H       -1.7799  -1.2440  -1.3817   H         1 RES1   0.0000
    28 H       -0.3369  -0.8401  -2.2618   H         1 RES1   0.0000
    29 H        0.8565  -3.1366  -2.3079   H         1 RES1   0.0000
    30 H       -0.3722   1.3169   2.4627   H         1 RES1   0.0000
    31 H       -1.7834   2.1754   1.8839   H         1 RES1   0.0000
@<TRIPOS>BOND
     1     1     2    1
     2     2     3    1
     3     2     4    1
     4     4     5    1
     5     5     6    1
     6     6     7    1
     7     7     2    1
     8     7     8    1
     9     8     9    1
    10     9    10    1
    11     9    11    2
    12     9    12    2
    13     7    13    1
    14    13    14    2
    15    13    15    1
    16    15     4    1
    17     1    16    1
    18     1    17    1
    19     1    18    1
    20     3    19    1
    21     3    20    1
    22     3    21    1
    23     4    22    1
    24     5    23    1
    25     5    24    1
    26     6    25    1
    27     6    26    1
    28     8    27    1
    29     8    28    1
    30    10    29    1
    31    15    30    1
    32    15    31    1
@<TRIPOS>SUBSTRUCTURE
     1 RES1        1 GROUP             0 ****  ****    0  
