@<TRIPOS>MOLECULE
3-methylpyridine
    14    14     1     0     0
SMALL
NO_CHARGES
****
Generated from the CSD

@<TRIPOS>ATOM
     1 C1      -3.3049   1.0420   0.0830   C.ar      1 RES1   0.0000
     2 C2      -2.0638   0.3951   0.0210   C.ar      1 RES1   0.0000
     3 C3      -2.0716  -1.0035  -0.0171   C.ar      1 RES1   0.0000
     4 C4      -3.2946  -1.6758   0.0070   C.ar      1 RES1   0.0000
     5 C5      -4.4692  -0.9216   0.0730   C.ar      1 RES1   0.0000
     6 N6      -4.4877   0.4156   0.1108   N.ar      1 RES1   0.0000
     7 C7      -0.7653   1.1593  -0.0069   C.3       1 RES1   0.0000
     8 H8      -3.3518   2.1296   0.1134   H         1 RES1   0.0000
     9 H9      -1.1373  -1.5609  -0.0654   H         1 RES1   0.0000
    10 H10     -3.3323  -2.7637  -0.0239   H         1 RES1   0.0000
    11 H11     -5.4379  -1.4185   0.0973   H         1 RES1   0.0000
    12 H12     -0.9208   2.2371  -0.0133   H         1 RES1   0.0000
    13 H13     -0.1684   0.9152   0.8706   H         1 RES1   0.0000
    14 H14     -0.1935   0.9019  -0.8972   H         1 RES1   0.0000
@<TRIPOS>BOND
     1     1     2   ar
     2     1     6   ar
     3     1     8    1
     4     2     3   ar
     5     2     7    1
     6     3     4   ar
     7     3     9    1
     8     4     5   ar
     9     4    10    1
    10     5     6   ar
    11     5    11    1
    12     7    12    1
    13     7    13    1
    14     7    14    1
@<TRIPOS>SUBSTRUCTURE
     1 RES1        1 GROUP             0 ****  ****    0  
