@<TRIPOS>MOLECULE
4-acetamidobenzoic_acid
    22    22     1     0     0
SMALL
NO_CHARGES
****
Generated from the CSD

@<TRIPOS>ATOM
     1 C1      -2.2455   2.9033  -1.0205   C.2       1 RES1   0.0000
     2 C2      -1.3625   1.7825  -0.6064   C.ar      1 RES1   0.0000
     3 C3      -0.5017   1.9302   0.4911   C.ar      1 RES1   0.0000
     4 C4       0.3250   0.8755   0.8753   C.ar      1 RES1   0.0000
     5 C5       0.3191  -0.3450   0.1840   C.ar      1 RES1   0.0000
     6 C6      -0.5421  -0.4821  -0.9082   C.ar      1 RES1   0.0000
     7 C7      -1.3764   0.5684  -1.3030   C.ar      1 RES1   0.0000
     8 O8      -3.0038   2.7831  -1.9755   O.2       1 RES1   0.0000
     9 O9      -2.2628   4.0920  -0.3827   O.3       1 RES1   0.0000
    10 C10      1.4024  -2.5645   0.2155   C.2       1 RES1   0.0000
    11 C11      2.4454  -3.3037   1.0314   C.3       1 RES1   0.0000
    12 O12      0.8493  -3.0786  -0.7264   O.2       1 RES1   0.0000
    13 N13      1.1605  -1.2919   0.6451   N.am      1 RES1   0.0000
    14 H14     -0.4689   2.8628   1.0525   H         1 RES1   0.0000
    15 H15      0.9843   1.0146   1.7308   H         1 RES1   0.0000
    16 H16     -0.5925  -1.4043  -1.4851   H         1 RES1   0.0000
    17 H17     -2.0339   0.4249  -2.1592   H         1 RES1   0.0000
    18 H18     -2.9263   4.6744  -0.8373   H         1 RES1   0.0000
    19 H19      2.6002  -4.3108   0.6470   H         1 RES1   0.0000
    20 H20      3.3973  -2.7761   0.9923   H         1 RES1   0.0000
    21 H21      2.1249  -3.3825   2.0692   H         1 RES1   0.0000
    22 H22      1.6776  -0.9479   1.4479   H         1 RES1   0.0000
@<TRIPOS>BOND
     1     1     2    1
     2     1     8    2
     3     1     9    1
     4     2     3   ar
     5     2     7   ar
     6     3     4   ar
     7     3    14    1
     8     4     5   ar
     9     4    15    1
    10     5     6   ar
    11     5    13    1
    12     6     7   ar
    13     6    16    1
    14     7    17    1
    15     9    18    1
    16    10    11    1
    17    10    12    2
    18    10    13   am
    19    11    19    1
    20    11    20    1
    21    11    21    1
    22    13    22    1
@<TRIPOS>SUBSTRUCTURE
     1 RES1        1 GROUP             0 ****  ****    0  
