@<TRIPOS>MOLECULE
60846
    61    63     1     0     0
SMALL
USER_CHARGES
****
Generated from the CSD

@<TRIPOS>ATOM
     1 O        4.7765  -0.7542   1.4703   O.3       1 UNL1  -0.4793
     2 O        2.2845  -0.2088  -1.8622   O.2       1 UNL1  -0.2756
     3 O        4.5382   0.2938   3.4141   O.2       1 UNL1  -0.2489
     4 N        2.4590   0.3359   0.3698   N.am      1 UNL1  -0.2834
     5 N        0.3078  -6.2581   2.0562   N.ar      1 UNL1  -0.1331
     6 N        0.9438  -7.9515   0.7222   N.ar      1 UNL1  -0.1080
     7 N       -0.7281  -6.7664   1.3465   N.ar      1 UNL1  -0.1761
     8 N       -0.3084  -7.8692   0.6637   N.ar      1 UNL1  -0.0485
     9 C        3.1534   1.0316   1.5002   C.3       1 UNL1   0.1254
    10 C        2.2108   1.9180   2.3704   C.3       1 UNL1  -0.0177
    11 C        1.3897  -0.6298   0.6724   C.3       1 UNL1   0.0406
    12 C        2.8631   0.4107  -0.9641   C.2       1 UNL1   0.2165
    13 C        1.6200   1.2685   3.6241   C.3       1 UNL1  -0.0605
    14 C        2.9316   3.2097   2.7943   C.3       1 UNL1  -0.0605
    15 C        4.0170   1.3186  -1.3512   C.3       1 UNL1   0.0242
    16 C        4.1635   0.1530   2.2608   C.2       1 UNL1   0.3257
    17 C        1.9343  -1.9762   1.1197   C.ar      1 UNL1  -0.0300
    18 C        3.5511   2.7639  -1.5112   C.3       1 UNL1  -0.0450
    19 C        4.7254   3.6955  -1.8048   C.3       1 UNL1  -0.0555
    20 C        2.5134  -2.8172   0.2276   C.ar      1 UNL1  -0.0565
    21 C        1.8130  -2.3964   2.4025   C.ar      1 UNL1  -0.0565
    22 C        2.8704  -4.4289   1.8940   C.ar      1 UNL1  -0.0172
    23 C        2.9809  -4.0228   0.6083   C.ar      1 UNL1  -0.0537
    24 C        2.2809  -3.6010   2.7870   C.ar      1 UNL1  -0.0537
    25 C        4.2662   5.1352  -1.9710   C.3       1 UNL1  -0.0653
    26 C        3.3803  -5.7425   2.3110   C.ar      1 UNL1  -0.0071
    27 C        2.6842  -6.9060   2.1298   C.ar      1 UNL1   0.0304
    28 C        4.6106  -5.7863   2.8835   C.ar      1 UNL1  -0.0534
    29 C        3.2537  -8.0747   2.5257   C.ar      1 UNL1  -0.0503
    30 C        5.1537  -6.9545   3.2729   C.ar      1 UNL1  -0.0611
    31 C        1.3630  -6.9371   1.5289   C.ar      1 UNL1   0.2049
    32 C        4.4748  -8.1000   3.0925   C.ar      1 UNL1  -0.0611
    33 H        3.8218   1.7512   1.0298   H         1 UNL1   0.0619
    34 H        1.3768   2.2296   1.7433   H         1 UNL1   0.0319
    35 H        0.7150  -0.1947   1.4082   H         1 UNL1   0.0514
    36 H        0.7641  -0.7836  -0.2056   H         1 UNL1   0.0514
    37 H        1.0424   0.3736   3.3974   H         1 UNL1   0.0233
    38 H        2.3823   1.0073   4.3566   H         1 UNL1   0.0233
    39 H        0.9365   1.9600   4.1145   H         1 UNL1   0.0233
    40 H        3.2743   3.7690   1.9250   H         1 UNL1   0.0233
    41 H        3.7954   2.9960   3.4221   H         1 UNL1   0.0233
    42 H        2.2621   3.8608   3.3544   H         1 UNL1   0.0233
    43 H        4.8406   1.2196  -0.6456   H         1 UNL1   0.0358
    44 H        4.4124   0.9579  -2.2996   H         1 UNL1   0.0358
    45 H        3.0285   3.1031  -0.6180   H         1 UNL1   0.0270
    46 H        2.8268   2.8185  -2.3225   H         1 UNL1   0.0270
    47 H        5.2344   3.3750  -2.7126   H         1 UNL1   0.0263
    48 H        5.4494   3.6439  -0.9930   H         1 UNL1   0.0263
    49 H        2.6096  -2.5261  -0.8174   H         1 UNL1   0.0621
    50 H        1.3295  -1.7719   3.1522   H         1 UNL1   0.0621
    51 H        3.4443  -4.6674  -0.1371   H         1 UNL1   0.0624
    52 H        2.1678  -3.9077   3.8258   H         1 UNL1   0.0624
    53 H        5.1178   5.7810  -2.1800   H         1 UNL1   0.0230
    54 H        3.7820   5.4971  -1.0652   H         1 UNL1   0.0230
    55 H        3.5614   5.2275  -2.7960   H         1 UNL1   0.0230
    56 H        5.3683  -1.2673   2.0807   H         1 UNL1   0.2951
    57 H        5.1799  -4.8699   3.0316   H         1 UNL1   0.0624
    58 H        2.7268  -9.0188   2.3957   H         1 UNL1   0.0625
    59 H        6.1421  -6.9718   3.7296   H         1 UNL1   0.0618
    60 H        4.9114  -9.0477   3.4041   H         1 UNL1   0.0618
    61 H       -1.5466  -6.9540   1.9166   H         1 UNL1   0.2143
@<TRIPOS>BOND
     1     1    16    1
     2     1    56    1
     3     2    12    2
     4     3    16    2
     5     4     9    1
     6     4    11    1
     7     4    12   am
     8     5     7   ar
     9     5    31   ar
    10     6     8   ar
    11     6    31   ar
    12     7     8   ar
    13     7    61    1
    14     9    10    1
    15     9    16    1
    16     9    33    1
    17    10    13    1
    18    10    14    1
    19    10    34    1
    20    11    17    1
    21    11    35    1
    22    11    36    1
    23    12    15    1
    24    13    37    1
    25    13    38    1
    26    13    39    1
    27    14    40    1
    28    14    41    1
    29    14    42    1
    30    15    18    1
    31    15    43    1
    32    15    44    1
    33    17    20   ar
    34    17    21   ar
    35    18    19    1
    36    18    45    1
    37    18    46    1
    38    19    25    1
    39    19    47    1
    40    19    48    1
    41    20    23   ar
    42    20    49    1
    43    21    24   ar
    44    21    50    1
    45    22    23   ar
    46    22    24   ar
    47    22    26    1
    48    23    51    1
    49    24    52    1
    50    25    53    1
    51    25    54    1
    52    25    55    1
    53    26    27   ar
    54    26    28   ar
    55    27    29   ar
    56    27    31    1
    57    28    30   ar
    58    28    57    1
    59    29    32   ar
    60    29    58    1
    61    30    32   ar
    62    30    59    1
    63    32    60    1
@<TRIPOS>SUBSTRUCTURE
     1 UNL1        1 GROUP             0 ****  ****    0  
