@<TRIPOS>MOLECULE
adipic_acid
    20    19     1     0     0
SMALL
NO_CHARGES
****
Generated from the CSD

@<TRIPOS>ATOM
     1 C1      -1.7406  -2.7396   0.0038   C.2       1 RES1   0.0000
     2 C2      -0.4761  -1.8996   0.0000   C.3       1 RES1   0.0000
     3 C3      -0.6717  -0.3749   0.0000   C.3       1 RES1   0.0000
     4 C4       0.6717   0.3749   0.0002   C.3       1 RES1   0.0000
     5 C5       0.4761   1.8996  -0.0002   C.3       1 RES1   0.0000
     6 C6       1.7406   2.7396   0.0038   C.2       1 RES1   0.0000
     7 O7      -1.7809  -3.9470   0.0178   O.2       1 RES1   0.0000
     8 O8      -2.8673  -2.0056  -0.0113   O.3       1 RES1   0.0000
     9 O9       1.7809   3.9470   0.0179   O.2       1 RES1   0.0000
    10 O10      2.8673   2.0056  -0.0113   O.3       1 RES1   0.0000
    11 H11      0.1024  -2.1886   0.8762   H         1 RES1   0.0000
    12 H12      0.0980  -2.1896  -0.8788   H         1 RES1   0.0000
    13 H13     -1.2408  -0.0803  -0.8805   H         1 RES1   0.0000
    14 H14     -1.2410  -0.0808   0.8805   H         1 RES1   0.0000
    15 H15      1.2407   0.0809   0.8810   H         1 RES1   0.0000
    16 H16      1.2411   0.0800  -0.8800   H         1 RES1   0.0000
    17 H17     -0.0976   2.1893  -0.8793   H         1 RES1   0.0000
    18 H18     -0.1027   2.1888   0.8757   H         1 RES1   0.0000
    19 H19     -3.6400  -2.6292  -0.0076   H         1 RES1   0.0000
    20 H20      3.6400   2.6292  -0.0075   H         1 RES1   0.0000
@<TRIPOS>BOND
     1     1     2    1
     2     1     7    2
     3     1     8    1
     4     2     3    1
     5     2    11    1
     6     2    12    1
     7     3     4    1
     8     3    13    1
     9     3    14    1
    10     4     5    1
    11     4    15    1
    12     4    16    1
    13     5     6    1
    14     5    17    1
    15     5    18    1
    16     6     9    2
    17     6    10    1
    18     8    19    1
    19    10    20    1
@<TRIPOS>SUBSTRUCTURE
     1 RES1        1 GROUP             0 ****  ****    0  
