@<TRIPOS>MOLECULE
azelaic_acid
    29    28     1     0     0
SMALL
NO_CHARGES
****
Generated from the CSD

@<TRIPOS>ATOM
     1 C1       2.4224   4.4374  -0.0013   C.2       1 RES1   0.0000
     2 C2       1.1173   3.6627   0.0002   C.3       1 RES1   0.0000
     3 C3       1.3270   2.1402  -0.0022   C.3       1 RES1   0.0000
     4 C4      -0.0005   1.3633   0.0002   C.3       1 RES1   0.0000
     5 C5       0.2362  -0.1560  -0.0005   C.3       1 RES1   0.0000
     6 C6      -1.0743  -0.9601   0.0001   C.3       1 RES1   0.0000
     7 C7      -0.8069  -2.4756  -0.0012   C.3       1 RES1   0.0000
     8 C8      -2.1065  -3.2959   0.0006   C.3       1 RES1   0.0000
     9 C9      -1.9513  -4.8069  -0.0045   C.2       1 RES1   0.0000
    10 O10      3.5403   3.9812  -0.0115   O.2       1 RES1   0.0000
    11 O11      2.2080   5.7663   0.0105   O.3       1 RES1   0.0000
    12 O12     -2.8580  -5.6050  -0.0210   O.2       1 RES1   0.0000
    13 O13     -0.6691  -5.2130   0.0128   O.3       1 RES1   0.0000
    14 H14      0.5495   3.9503   0.8838   H         1 RES1   0.0000
    15 H15      0.5464   3.9530  -0.8805   H         1 RES1   0.0000
    16 H16      1.9034   1.8591  -0.8823   H         1 RES1   0.0000
    17 H17      1.9082   1.8571   0.8742   H         1 RES1   0.0000
    18 H18     -0.5809   1.6395   0.8793   H         1 RES1   0.0000
    19 H19     -0.5844   1.6400  -0.8764   H         1 RES1   0.0000
    20 H20      0.8211  -0.4267  -0.8783   H         1 RES1   0.0000
    21 H21      0.8222  -0.4272   0.8764   H         1 RES1   0.0000
    22 H22     -1.6612  -0.6957   0.8785   H         1 RES1   0.0000
    23 H23     -1.6627  -0.6945  -0.8769   H         1 RES1   0.0000
    24 H24     -0.2195  -2.7295  -0.8824   H         1 RES1   0.0000
    25 H25     -0.2162  -2.7303   0.8775   H         1 RES1   0.0000
    26 H26     -2.6936  -3.0376   0.8807   H         1 RES1   0.0000
    27 H27     -2.6987  -3.0322  -0.8744   H         1 RES1   0.0000
    28 H28      3.0926   6.2175   0.0091   H         1 RES1   0.0000
    29 H29     -0.6640  -6.2060   0.0095   H         1 RES1   0.0000
@<TRIPOS>BOND
     1     1     2    1
     2     1    10    2
     3     1    11    1
     4     2     3    1
     5     2    14    1
     6     2    15    1
     7     3     4    1
     8     3    16    1
     9     3    17    1
    10     4     5    1
    11     4    18    1
    12     4    19    1
    13     5     6    1
    14     5    20    1
    15     5    21    1
    16     6     7    1
    17     6    22    1
    18     6    23    1
    19     7     8    1
    20     7    24    1
    21     7    25    1
    22     8     9    1
    23     8    26    1
    24     8    27    1
    25     9    12    2
    26     9    13    1
    27    11    28    1
    28    13    29    1
@<TRIPOS>SUBSTRUCTURE
     1 RES1        1 GROUP             0 ****  ****    0  
