@<TRIPOS>MOLECULE
caprolactam
    19    19     1     0     0
SMALL
NO_CHARGES
****
Generated from the CSD

@<TRIPOS>ATOM
     1 O1       2.8299  -0.6011  -0.6454   O.2       1 ****   0.0000
     2 C2       1.6570  -0.6036  -0.3208   C.2       1 ****   0.0000
     3 C3       0.5398  -0.2765  -1.2935   C.3       1 ****   0.0000
     4 C4      -0.2672   0.9946  -0.9732   C.3       1 ****   0.0000
     5 C5      -1.3134   0.8391   0.1347   C.3       1 ****   0.0000
     6 C6      -0.7589   0.4013   1.4962   C.3       1 ****   0.0000
     7 C7      -0.0697  -0.9698   1.4671   C.3       1 ****   0.0000
     8 N8       1.2667  -1.0065   0.8988   N.am      1 ****   0.0000
     9 H        1.0935  -0.1329  -2.2202   H         1 ****   0.0000
    10 H       -0.1165  -1.1306  -1.4541   H         1 ****   0.0000
    11 H        0.4177   1.8056  -0.7299   H         1 ****   0.0000
    12 H       -0.7768   1.2937  -1.8880   H         1 ****   0.0000
    13 H       -2.0589   0.1137  -0.1878   H         1 ****   0.0000
    14 H       -1.8448   1.7825   0.2511   H         1 ****   0.0000
    15 H       -1.5855   0.3326   2.2018   H         1 ****   0.0000
    16 H       -0.0767   1.1546   1.8875   H         1 ****   0.0000
    17 H        0.0292  -1.3311   2.4897   H         1 ****   0.0000
    18 H       -0.7090  -1.6911   0.9602   H         1 ****   0.0000
    19 H        2.0325  -1.2103   1.5331   H         1 ****   0.0000
@<TRIPOS>BOND
     1     1     2    2
     2     2     3    1
     3     3     4    1
     4     4     5    1
     5     5     6    1
     6     6     7    1
     7     7     8    1
     8     8     2   am
     9     3     9    1
    10     3    10    1
    11     4    11    1
    12     4    12    1
    13     5    13    1
    14     5    14    1
    15     6    15    1
    16     6    16    1
    17     7    17    1
    18     7    18    1
    19     8    19    1
@<TRIPOS>SUBSTRUCTURE
     1 ****        1 GROUP             0 ****  ****    0  
