@<TRIPOS>MOLECULE
capsaicin
    49    49     1     0     0
SMALL
NO_CHARGES
****
Generated from the CSD

@<TRIPOS>ATOM
     1 C1      -4.2060  -6.4766   3.4866   C.3       1 RES1   0.0000
     2 C2      -3.6502  -5.0609   3.7074   C.3       1 RES1   0.0000
     3 C3      -1.7478  -3.5107   0.6357   C.3       1 RES1   0.0000
     4 C4      -3.0339  -4.9215   5.1075   C.3       1 RES1   0.0000
     5 C5      -0.2303  -1.7956  -0.4572   C.3       1 RES1   0.0000
     6 C6      -2.6188  -4.7459   2.6473   C.2       1 RES1   0.0000
     7 C7      -2.7617  -3.7881   1.7179   C.2       1 RES1   0.0000
     8 C8      -1.2354  -2.0616   0.6764   C.3       1 RES1   0.0000
     9 C9       0.2820  -0.3461  -0.4799   C.3       1 RES1   0.0000
    10 C10      1.2398  -0.0759  -1.6305   C.2       1 RES1   0.0000
    11 N11      1.6357   1.2287  -1.7455   N.am      1 RES1   0.0000
    12 C12      2.5289   1.6756  -2.8139   C.3       1 RES1   0.0000
    13 C13      2.8388   3.1389  -2.6086   C.ar      1 RES1   0.0000
    14 C14      1.8522   4.0368  -2.4562   C.ar      1 RES1   0.0000
    15 C15      2.0505   5.3583  -2.2670   C.ar      1 RES1   0.0000
    16 O16      0.9192   6.1347  -2.1462   O.3       1 RES1   0.0000
    17 C17      0.9935   7.5368  -2.2333   C.3       1 RES1   0.0000
    18 C18      3.3332   5.7921  -2.2581   C.ar      1 RES1   0.0000
    19 O19      3.6833   7.0965  -2.0919   O.3       1 RES1   0.0000
    20 C20      4.3285   4.8992  -2.4045   C.ar      1 RES1   0.0000
    21 C21      4.1002   3.5914  -2.5767   C.ar      1 RES1   0.0000
    22 O22      1.6211  -0.9351  -2.3896   O.2       1 RES1   0.0000
    23 H23     -4.9726  -6.7172   4.2217   H         1 RES1   0.0000
    24 H24     -4.6552  -6.5717   2.4991   H         1 RES1   0.0000
    25 H25     -3.4221  -7.2280   3.5687   H         1 RES1   0.0000
    26 H26     -4.4784  -4.3580   3.6304   H         1 RES1   0.0000
    27 H27     -2.2248  -3.7081  -0.3232   H         1 RES1   0.0000
    28 H28     -0.9044  -4.1944   0.7196   H         1 RES1   0.0000
    29 H29     -2.6560  -3.9130   5.2690   H         1 RES1   0.0000
    30 H30     -3.7719  -5.1249   5.8820   H         1 RES1   0.0000
    31 H31     -2.2072  -5.6162   5.2484   H         1 RES1   0.0000
    32 H32     -0.7091  -2.0169  -1.4100   H         1 RES1   0.0000
    33 H33      0.6141  -2.4747  -0.3492   H         1 RES1   0.0000
    34 H34     -1.7201  -5.3609   2.6450   H         1 RES1   0.0000
    35 H35     -3.6645  -3.1791   1.7110   H         1 RES1   0.0000
    36 H36     -0.7611  -1.8705   1.6379   H         1 RES1   0.0000
    37 H37     -2.0750  -1.3744   0.5826   H         1 RES1   0.0000
    38 H38      0.7981  -0.1233   0.4528   H         1 RES1   0.0000
    39 H39     -0.5615   0.3362  -0.5740   H         1 RES1   0.0000
    40 H40      1.2859   1.9249  -1.0950   H         1 RES1   0.0000
    41 H41      2.0406   1.5505  -3.7792   H         1 RES1   0.0000
    42 H42      3.4364   1.0738  -2.8052   H         1 RES1   0.0000
    43 H43      0.8253   3.6762  -2.4916   H         1 RES1   0.0000
    44 H44     -0.0256   7.9207  -2.2309   H         1 RES1   0.0000
    45 H45      1.4604   7.8354  -3.1707   H         1 RES1   0.0000
    46 H46      1.4965   7.9486  -1.3597   H         1 RES1   0.0000
    47 H47      4.6726   7.1822  -2.0947   H         1 RES1   0.0000
    48 H48      5.3596   5.2490  -2.3866   H         1 RES1   0.0000
    49 H49      4.9395   2.9080  -2.6971   H         1 RES1   0.0000
@<TRIPOS>BOND
     1     1     2    1
     2     1    23    1
     3     1    24    1
     4     1    25    1
     5     2     4    1
     6     2     6    1
     7     2    26    1
     8     7     3    1
     9     3     8    1
    10     3    27    1
    11     3    28    1
    12     4    29    1
    13     4    30    1
    14     4    31    1
    15     8     5    1
    16     5     9    1
    17     5    32    1
    18     5    33    1
    19     6     7    2
    20     6    34    1
    21     7    35    1
    22     8    36    1
    23     8    37    1
    24     9    10    1
    25     9    38    1
    26     9    39    1
    27    10    11   am
    28    10    22    2
    29    11    12    1
    30    11    40    1
    31    12    13    1
    32    12    41    1
    33    12    42    1
    34    13    14   ar
    35    13    21   ar
    36    14    15   ar
    37    14    43    1
    38    15    16    1
    39    15    18   ar
    40    16    17    1
    41    17    44    1
    42    17    45    1
    43    17    46    1
    44    18    19    1
    45    18    20   ar
    46    19    47    1
    47    20    21   ar
    48    20    48    1
    49    21    49    1
@<TRIPOS>SUBSTRUCTURE
     1 RES1        1 GROUP             0 ****  ****    0  
