@<TRIPOS>MOLECULE
cholic_acid
    69    72     1     0     0
SMALL
NO_CHARGES
****
Generated from the CSD

@<TRIPOS>ATOM
     1 C1      -0.8119   0.2537  -2.2176   C.3       1 RES1   0.0000
     2 C2      -1.7690  -0.8158  -2.7271   C.3       1 RES1   0.0000
     3 C3      -2.4533  -1.2151  -1.5495   C.3       1 RES1   0.0000
     4 O4      -3.7152  -1.7442  -1.8547   O.3       1 RES1   0.0000
     5 C5      -1.5367  -2.2846  -0.9701   C.3       1 RES1   0.0000
     6 C6      -0.1008  -1.7769  -0.9701   C.3       1 RES1   0.0000
     7 H7       0.4126  -2.1400  -0.0810   H         1 RES1   0.0000
     8 C8       0.6171  -2.2846  -2.2137   C.3       1 RES1   0.0000
     9 C9       2.1584  -1.7637  -2.1612   C.3       1 RES1   0.0000
    10 O10      2.4424  -0.9796  -3.2882   O.3       1 RES1   0.0000
    11 C11      2.2914  -0.9296  -0.8939   C.3       1 RES1   0.0000
    12 C12      3.7213  -0.4201  -0.7693   C.3       1 RES1   0.0000
    13 C13      4.6723  -1.6028  -0.6417   C.3       1 RES1   0.0000
    14 C14      5.8490  -1.0459   0.1486   C.3       1 RES1   0.0000
    15 C15      5.3833   0.5500   0.6652   C.3       1 RES1   0.0000
    16 C16      5.8227   0.8573   2.0907   C.3       1 RES1   0.0000
    17 C17      7.3434   0.9136   2.1515   C.3       1 RES1   0.0000
    18 C18      7.7827   2.2940   2.6217   C.3       1 RES1   0.0000
    19 C19      9.2895   2.3498   2.6819   C.2       1 RES1   0.0000
    20 C20      5.2467   2.2002   2.5203   C.3       1 RES1   0.0000
    21 C21      3.8815   0.3253   0.5491   C.3       1 RES1   0.0000
    22 C22      3.2999  -0.4324   1.7353   C.3       1 RES1   0.0000
    23 C23      3.1723   1.6703   0.4612   C.3       1 RES1   0.0000
    24 O24      3.6219   2.4222  -0.6333   O.3       1 RES1   0.0000
    25 C25      1.5497   1.1506   0.2498   C.3       1 RES1   0.0000
    26 C26      1.3351   0.2537  -0.9622   C.3       1 RES1   0.0000
    27 C27     -0.1008  -0.2539  -0.9701   C.3       1 RES1   0.0000
    28 C28     -0.8256   0.2538   0.2694   C.3       1 RES1   0.0000
    29 O29      9.8427   3.3643   3.0338   O.2       1 RES1   0.0000
    30 O30     10.0126   1.2755   2.3455   O.3       1 RES1   0.0000
    31 H31      1.5244   0.8214  -1.8720   H         1 RES1   0.0000
    32 H32      2.0481  -1.5436  -0.0280   H         1 RES1   0.0000
    33 H33      3.9308   0.2023  -1.6380   H         1 RES1   0.0000
    34 H34     -0.0761   0.4785  -2.9883   H         1 RES1   0.0000
    35 H35     -1.3714   1.1559  -1.9749   H         1 RES1   0.0000
    36 H36     -2.4604  -0.4048  -3.4613   H         1 RES1   0.0000
    37 H37     -1.2655  -1.6388  -3.2322   H         1 RES1   0.0000
    38 H38     -2.6427  -0.3922  -0.8619   H         1 RES1   0.0000
    39 H39     -4.3082  -2.0657  -1.1260   H         1 RES1   0.0000
    40 H40     -1.8419  -2.5094   0.0508   H         1 RES1   0.0000
    41 H41     -1.6029  -3.1868  -1.5763   H         1 RES1   0.0000
    42 H42      0.5969  -3.3733  -2.2316   H         1 RES1   0.0000
    43 H43      0.1246  -1.9114  -3.1104   H         1 RES1   0.0000
    44 H44      2.8562  -2.5997  -2.1570   H         1 RES1   0.0000
    45 H45      3.3465  -0.5855  -3.4037   H         1 RES1   0.0000
    46 H46      4.9943  -1.9477  -1.6232   H         1 RES1   0.0000
    47 H47      4.2106  -2.4617  -0.1569   H         1 RES1   0.0000
    48 H48      6.0538  -1.6761   1.0128   H         1 RES1   0.0000
    49 H49      6.7532  -1.0164  -0.4576   H         1 RES1   0.0000
    50 H50      5.8030   1.3914   0.1159   H         1 RES1   0.0000
    51 H51      5.4615   0.0771   2.7591   H         1 RES1   0.0000
    52 H52      7.7064   0.1605   2.8493   H         1 RES1   0.0000
    53 H53      7.7536   0.7201   1.1614   H         1 RES1   0.0000
    54 H54      7.4197   3.0471   1.9238   H         1 RES1   0.0000
    55 H55      7.3726   2.4876   3.6118   H         1 RES1   0.0000
    56 H56      5.5603   2.4209   3.5395   H         1 RES1   0.0000
    57 H57      4.1594   2.1589   2.4765   H         1 RES1   0.0000
    58 H58      5.6084   2.9806   1.8524   H         1 RES1   0.0000
    59 H59      4.0944  -0.6654   2.4427   H         1 RES1   0.0000
    60 H60      2.5475   0.1837   2.2254   H         1 RES1   0.0000
    61 H61      2.8422  -1.3568   1.3863   H         1 RES1   0.0000
    62 H62      3.3326   2.3261   1.3157   H         1 RES1   0.0000
    63 H63      3.2407   3.3224  -0.8076   H         1 RES1   0.0000
    64 H64      0.9207   2.0325   0.1375   H         1 RES1   0.0000
    65 H65      1.2936   0.5585   1.1271   H         1 RES1   0.0000
    66 H66     -0.1448   0.8589   0.8663   H         1 RES1   0.0000
    67 H67     -1.1704  -0.5936   0.8602   H         1 RES1   0.0000
    68 H68     -1.6795   0.8587  -0.0319   H         1 RES1   0.0000
    69 H69     11.0041   1.3122   2.3850   H         1 RES1   0.0000
@<TRIPOS>BOND
     1     1     2    1
     2     1    27    1
     3     1    34    1
     4     1    35    1
     5     2     3    1
     6     2    36    1
     7     2    37    1
     8     3     4    1
     9     3     5    1
    10     3    38    1
    11     4    39    1
    12     5     6    1
    13     5    40    1
    14     5    41    1
    15     6     7    1
    16     6     8    1
    17     6    27    1
    18     8     9    1
    19     8    42    1
    20     8    43    1
    21     9    10    1
    22     9    11    1
    23     9    44    1
    24    10    45    1
    25    11    12    1
    26    11    26    1
    27    11    32    1
    28    12    13    1
    29    12    21    1
    30    12    33    1
    31    13    14    1
    32    13    46    1
    33    13    47    1
    34    15    14    1
    35    14    48    1
    36    14    49    1
    37    15    16    1
    38    15    21    1
    39    15    50    1
    40    16    17    1
    41    16    20    1
    42    16    51    1
    43    17    18    1
    44    17    52    1
    45    17    53    1
    46    18    19    1
    47    18    54    1
    48    18    55    1
    49    19    29    2
    50    19    30    1
    51    20    56    1
    52    20    57    1
    53    20    58    1
    54    21    22    1
    55    21    23    1
    56    22    59    1
    57    22    60    1
    58    22    61    1
    59    23    24    1
    60    23    25    1
    61    23    62    1
    62    24    63    1
    63    25    26    1
    64    25    64    1
    65    25    65    1
    66    26    27    1
    67    26    31    1
    68    27    28    1
    69    28    66    1
    70    28    67    1
    71    28    68    1
    72    30    69    1
@<TRIPOS>SUBSTRUCTURE
     1 RES1        1 GROUP             0 ****  ****    0  
