@<TRIPOS>MOLECULE
ethylparaben
    22    22     1     0     0
SMALL
NO_CHARGES
****
Generated from the CSD

@<TRIPOS>ATOM
     1 C1       3.7936  -0.4356  -0.9847   C.3       1 RES1   0.0000
     2 C2       2.3350  -0.3936  -0.5285   C.3       1 RES1   0.0000
     3 O3       2.0227   0.9227  -0.1816   O.3       1 RES1   0.0000
     4 C4       0.7680   1.4007   0.1148   C.2       1 RES1   0.0000
     5 O5       0.7415   2.6051   0.2921   O.2       1 RES1   0.0000
     6 C6      -0.4405   0.7626   0.2475   C.ar      1 RES1   0.0000
     7 C7      -1.5458   1.4945   0.5120   C.ar      1 RES1   0.0000
     8 C8      -2.7609   0.9408   0.6493   C.ar      1 RES1   0.0000
     9 C9      -2.9427  -0.3833   0.5352   C.ar      1 RES1   0.0000
    10 C10     -1.8521  -1.1223   0.2830   C.ar      1 RES1   0.0000
    11 C11     -0.6376  -0.5660   0.1434   C.ar      1 RES1   0.0000
    12 O12     -4.1679  -0.9564   0.6740   O.3       1 RES1   0.0000
    13 H13      4.0856  -1.4465  -1.2654   H         1 RES1   0.0000
    14 H14      4.4641  -0.1040  -0.1933   H         1 RES1   0.0000
    15 H15      3.9547   0.2064  -1.8495   H         1 RES1   0.0000
    16 H16      1.7143  -0.7069  -1.3666   H         1 RES1   0.0000
    17 H17      2.2293  -1.0350   0.3452   H         1 RES1   0.0000
    18 H18     -1.5130   2.5774   0.6221   H         1 RES1   0.0000
    19 H19     -3.6223   1.5738   0.8573   H         1 RES1   0.0000
    20 H20     -1.9640  -2.2019   0.1942   H         1 RES1   0.0000
    21 H21      0.1609  -1.2820  -0.0456   H         1 RES1   0.0000
    22 H22     -4.0818  -1.9397   0.5655   H         1 RES1   0.0000
@<TRIPOS>BOND
     1     1     2    1
     2     1    13    1
     3     1    14    1
     4     1    15    1
     5     2     3    1
     6     2    16    1
     7     2    17    1
     8     3     4    1
     9     4     5    2
    10     4     6    1
    11     6     7   ar
    12     6    11   ar
    13     7     8   ar
    14     7    18    1
    15     8     9   ar
    16     8    19    1
    17     9    10   ar
    18     9    12    1
    19    10    11   ar
    20    10    20    1
    21    11    21    1
    22    12    22    1
@<TRIPOS>SUBSTRUCTURE
     1 RES1        1 GROUP             0 ****  ****    0  
