@<TRIPOS>MOLECULE
L-leucine
    22    21     1     0     0
SMALL
NO_CHARGES
****
Generated from the CSD

@<TRIPOS>ATOM
     1 C1      -0.2974  -0.5479   1.6026   C.3       1 RES1   0.0000
     2 C2       0.7960   0.4690   1.2602   C.3       1 RES1   0.0000
     3 C3       2.1149  -0.2671   0.9883   C.3       1 RES1   0.0000
     4 C4       0.4044   1.5003   0.1755   C.3       1 RES1   0.0000
     5 C5      -0.0342   1.0806  -1.2436   C.3       1 RES1   0.0000
     6 N6       0.9954   0.3139  -2.0033   N.3       1 RES1   0.0000
     7 C7      -1.4542   0.4429  -1.2871   C.2       1 RES1   0.0000
     8 O8      -1.6046  -0.1752  -2.4992   O.3       1 RES1   0.0000
     9 O9      -2.3407   0.5113  -0.4806   O.2       1 RES1   0.0000
    10 H        0.0059  -1.1616   2.4495   H         1 RES1   0.0000
    11 H       -1.2337  -0.0624   1.8739   H         1 RES1   0.0000
    12 H       -0.4976  -1.2171   0.7671   H         1 RES1   0.0000
    13 H        0.9601   1.0643   2.1572   H         1 RES1   0.0000
    14 H        2.0148  -0.9980   0.1873   H         1 RES1   0.0000
    15 H        2.4283  -0.8095   1.8790   H         1 RES1   0.0000
    16 H        2.9192   0.4186   0.7258   H         1 RES1   0.0000
    17 H        1.2500   2.1748   0.0493   H         1 RES1   0.0000
    18 H       -0.3973   2.1174   0.5784   H         1 RES1   0.0000
    19 H       -0.1863   2.0076  -1.7945   H         1 RES1   0.0000
    20 H        1.8389   0.8728  -2.0830   H         1 RES1   0.0000
    21 H        1.2691  -0.5090  -1.4760   H         1 RES1   0.0000
    22 H       -0.7052  -0.1841  -2.9199   H         1 RES1   0.0000
@<TRIPOS>BOND
     1     1     2    1
     2     2     3    1
     3     2     4    1
     4     4     5    1
     5     5     6    1
     6     5     7    1
     7     7     8    1
     8     7     9    2
     9     1    10    1
    10     1    11    1
    11     1    12    1
    12     2    13    1
    13     3    14    1
    14     3    15    1
    15     3    16    1
    16     4    17    1
    17     4    18    1
    18     5    19    1
    19     6    20    1
    20     6    21    1
    21     8    22    1
@<TRIPOS>SUBSTRUCTURE
     1 RES1        1 GROUP             0 ****  ****    0  
