@<TRIPOS>MOLECULE
L-methionine
    20    19     1     0     0
SMALL
NO_CHARGES
****
Generated from the CSD

@<TRIPOS>ATOM
     1 C1       1.8579   0.2111  -1.2128   C.2       1 RES1   0.0000
     2 N2       2.1396  -2.0358  -0.3396   N.3       1 RES1   0.0000
     3 C3       1.1390  -1.0064  -0.6640   C.3       1 RES1   0.0000
     4 C4       0.2358  -0.7503   0.5558   C.3       1 RES1   0.0000
     5 C5      -0.8953   0.2482   0.2559   C.3       1 RES1   0.0000
     6 S6      -1.9178   0.4533   1.7524   S.3       1 RES1   0.0000
     7 C7      -3.1129   1.6463   1.0875   C.3       1 RES1   0.0000
     8 O8       2.0866   0.4286  -2.3785   O.2       1 RES1   0.0000
     9 O9       2.2883   1.0421  -0.2463   O.3       1 RES1   0.0000
    10 H10      1.6940  -2.8657   0.0383   H         1 RES1   0.0000
    11 H11      2.6138  -2.3504  -1.1800   H         1 RES1   0.0000
    12 H12      0.5249  -1.4040  -1.4707   H         1 RES1   0.0000
    13 H13      0.8431  -0.3985   1.3885   H         1 RES1   0.0000
    14 H14     -0.1975  -1.7008   0.8637   H         1 RES1   0.0000
    15 H15     -1.5012  -0.1253  -0.5683   H         1 RES1   0.0000
    16 H16     -0.4790   1.2074  -0.0482   H         1 RES1   0.0000
    17 H17     -3.8335   1.8986   1.8640   H         1 RES1   0.0000
    18 H18     -3.6428   1.2123   0.2409   H         1 RES1   0.0000
    19 H19     -2.6015   2.5542   0.7712   H         1 RES1   0.0000
    20 H20      2.8026   1.7710  -0.6825   H         1 RES1   0.0000
@<TRIPOS>BOND
     1     1     3    1
     2     1     8    2
     3     1     9    1
     4     2     3    1
     5     2    10    1
     6     2    11    1
     7     3     4    1
     8     3    12    1
     9     4     5    1
    10     4    13    1
    11     4    14    1
    12     5     6    1
    13     5    15    1
    14     5    16    1
    15     6     7    1
    16     7    17    1
    17     7    18    1
    18     7    19    1
    19     9    20    1
@<TRIPOS>SUBSTRUCTURE
     1 RES1        1 GROUP             0 ****  ****    0  
