@<TRIPOS>MOLECULE
L-phenylalanine
    23    23     1     0     0
SMALL
NO_CHARGES
****
Generated from the CSD

@<TRIPOS>ATOM
     1 C1       2.6749   1.1747  -1.1317   C.2       1 RES1   0.0000
     2 N2       1.8561  -0.9381  -0.2515   N.3       1 RES1   0.0000
     3 C3       1.4390   0.3534  -0.8183   C.3       1 RES1   0.0000
     4 C4       0.5066   1.0586   0.1788   C.3       1 RES1   0.0000
     5 C5      -0.7230   0.2124   0.4347   C.ar      1 RES1   0.0000
     6 C6      -0.7631  -0.6606   1.4575   C.ar      1 RES1   0.0000
     7 C7      -1.8514  -1.4152   1.6763   C.ar      1 RES1   0.0000
     8 C8      -2.9186  -1.3040   0.8709   C.ar      1 RES1   0.0000
     9 C9      -2.8917  -0.4372  -0.1527   C.ar      1 RES1   0.0000
    10 C10     -1.7994   0.3126  -0.3660   C.ar      1 RES1   0.0000
    11 O11      3.3178   1.8222  -0.3411   O.2       1 RES1   0.0000
    12 O12      2.9994   1.1306  -2.4372   O.3       1 RES1   0.0000
    13 H13      1.0395  -1.4980  -0.0279   H         1 RES1   0.0000
    14 H14      2.3280  -0.8015   0.6367   H         1 RES1   0.0000
    15 H15      0.8937   0.1603  -1.7409   H         1 RES1   0.0000
    16 H16      0.2148   2.0322  -0.2123   H         1 RES1   0.0000
    17 H17      1.0290   1.2513   1.1147   H         1 RES1   0.0000
    18 H18      0.0954  -0.7648   2.1193   H         1 RES1   0.0000
    19 H19     -1.8687  -2.1190   2.5071   H         1 RES1   0.0000
    20 H20     -3.8027  -1.9152   1.0460   H         1 RES1   0.0000
    21 H21     -3.7542  -0.3440  -0.8109   H         1 RES1   0.0000
    22 H22     -1.7888   1.0086  -1.2035   H         1 RES1   0.0000
    23 H23      3.8117   1.6871  -2.5653   H         1 RES1   0.0000
@<TRIPOS>BOND
     1     1     3    1
     2     1    11    2
     3     1    12    1
     4     2     3    1
     5     2    13    1
     6     2    14    1
     7     3     4    1
     8     3    15    1
     9     4     5    1
    10     4    16    1
    11     4    17    1
    12     5     6   ar
    13     5    10   ar
    14     6     7   ar
    15     6    18    1
    16     7     8   ar
    17     7    19    1
    18     8     9   ar
    19     8    20    1
    20     9    10   ar
    21     9    21    1
    22    10    22    1
    23    12    23    1
@<TRIPOS>SUBSTRUCTURE
     1 RES1        1 GROUP             0 ****  ****    0  
