@<TRIPOS>MOLECULE
L-proline
    17    17     1     0     0
SMALL
NO_CHARGES
****
Generated from the CSD

@<TRIPOS>ATOM
     1 C1      -1.1667   1.5565  -0.4039   C.2       1 RES1   0.0000
     2 N2       1.0037   0.7431   0.3500   N.3       1 RES1   0.0000
     3 C3      -0.0207   0.6032  -0.6861   C.3       1 RES1   0.0000
     4 C4      -0.4218  -0.8842  -0.7123   C.3       1 RES1   0.0000
     5 C5       0.1971  -1.4615   0.5678   C.3       1 RES1   0.0000
     6 C6       1.4515  -0.5958   0.7217   C.3       1 RES1   0.0000
     7 O7      -1.4397   2.5490  -1.0349   O.2       1 RES1   0.0000
     8 O8      -1.8630   1.2086   0.6944   O.3       1 RES1   0.0000
     9 H9       1.7844   1.3021   0.0210   H         1 RES1   0.0000
    10 H10      0.4164   0.8866  -1.6424   H         1 RES1   0.0000
    11 H11      0.0268  -1.3706  -1.5772   H         1 RES1   0.0000
    12 H12     -1.4972  -1.0477  -0.7641   H         1 RES1   0.0000
    13 H13     -0.4703  -1.2988   1.4128   H         1 RES1   0.0000
    14 H14      0.4189  -2.5251   0.4940   H         1 RES1   0.0000
    15 H15      2.2213  -0.9214   0.0236   H         1 RES1   0.0000
    16 H16      1.8608  -0.6138   1.7307   H         1 RES1   0.0000
    17 H17     -2.5578   1.9027   0.8409   H         1 RES1   0.0000
@<TRIPOS>BOND
     1     1     3    1
     2     1     7    2
     3     1     8    1
     4     2     3    1
     5     2     6    1
     6     2     9    1
     7     3     4    1
     8     3    10    1
     9     4     5    1
    10     4    11    1
    11     4    12    1
    12     5     6    1
    13     5    13    1
    14     5    14    1
    15     6    15    1
    16     6    16    1
    17     8    17    1
@<TRIPOS>SUBSTRUCTURE
     1 RES1        1 GROUP             0 ****  ****    0  
