@<TRIPOS>MOLECULE
L-tyrosine
    24    24     1     0     0
SMALL
NO_CHARGES
****
Generated from the CSD

@<TRIPOS>ATOM
     1 C1       1.2382   0.7997  -1.6507   C.2       1 RES1   0.0000
     2 N2       2.2709   1.9565   0.2090   N.3       1 RES1   0.0000
     3 C3       1.2828   0.9215  -0.1390   C.3       1 RES1   0.0000
     4 C4      -0.0422   1.2406   0.5772   C.3       1 RES1   0.0000
     5 C5      -1.0451   0.1055   0.5501   C.ar      1 RES1   0.0000
     6 C6      -0.8030  -1.0399   1.2109   C.ar      1 RES1   0.0000
     7 C7      -1.6869  -2.0494   1.1931   C.ar      1 RES1   0.0000
     8 C8      -2.8444  -1.9516   0.5181   C.ar      1 RES1   0.0000
     9 O9      -3.7448  -2.9708   0.4947   O.3       1 RES1   0.0000
    10 C10     -3.0875  -0.8027  -0.1343   C.ar      1 RES1   0.0000
    11 C11     -2.2078   0.2101  -0.1172   C.ar      1 RES1   0.0000
    12 O12      2.1989   0.8661  -2.3803   O.2       1 RES1   0.0000
    13 O13      0.0091   0.5627  -2.1376   O.3       1 RES1   0.0000
    14 H14      2.5228   1.8983   1.1905   H         1 RES1   0.0000
    15 H15      3.1364   1.8035  -0.2987   H         1 RES1   0.0000
    16 H16      1.6825  -0.0243   0.2238   H         1 RES1   0.0000
    17 H17     -0.4651   2.1519   0.1570   H         1 RES1   0.0000
    18 H18      0.1593   1.4650   1.6236   H         1 RES1   0.0000
    19 H19      0.1224  -1.1554   1.7732   H         1 RES1   0.0000
    20 H20     -1.4640  -2.9660   1.7373   H         1 RES1   0.0000
    21 H21     -4.5252  -2.6991  -0.0560   H         1 RES1   0.0000
    22 H22     -4.0193  -0.6920  -0.6870   H         1 RES1   0.0000
    23 H23     -2.4463   1.1246  -0.6582   H         1 RES1   0.0000
    24 H24      0.0834   0.4761  -3.1240   H         1 RES1   0.0000
@<TRIPOS>BOND
     1     1     3    1
     2     1    12    2
     3     1    13    1
     4     3     2    1
     5     2    14    1
     6     2    15    1
     7     3     4    1
     8     3    16    1
     9     4     5    1
    10     4    17    1
    11     4    18    1
    12     5     6   ar
    13     5    11   ar
    14     6     7   ar
    15     6    19    1
    16     7     8   ar
    17     7    20    1
    18     8     9    1
    19     8    10   ar
    20     9    21    1
    21    10    11   ar
    22    10    22    1
    23    11    23    1
    24    13    24    1
@<TRIPOS>SUBSTRUCTURE
     1 RES1        1 GROUP             0 ****  ****    0  
