@<TRIPOS>MOLECULE
monobutyrin
    25    24     1     0     0
SMALL
NO_CHARGES
****
Generated from the CSD

@<TRIPOS>ATOM
     1 O1      -3.1001  -0.0607   0.2162   O.3       1 RES1   0.0000
     2 C2      -2.0951   0.8004  -0.2447   C.3       1 RES1   0.0000
     3 C3      -2.5341   2.2282   0.0495   C.3       1 RES1   0.0000
     4 O4      -2.8868   2.3069   1.4109   O.3       1 RES1   0.0000
     5 C5      -1.4506   3.2545  -0.2308   C.3       1 RES1   0.0000
     6 O6      -1.0368   3.1589  -1.5779   O.3       1 RES1   0.0000
     7 C7      -2.9549  -1.4170   0.2372   C.2       1 RES1   0.0000
     8 O8      -3.8100  -2.1397   0.7039   O.2       1 RES1   0.0000
     9 C9      -1.6853  -2.0007  -0.3701   C.3       1 RES1   0.0000
    10 C10     -0.6025  -2.2807   0.6833   C.3       1 RES1   0.0000
    11 C11      0.6435  -2.9217   0.0569   C.3       1 RES1   0.0000
    12 H12     -1.1623   0.5936   0.2779   H         1 RES1   0.0000
    13 H13     -1.9733   0.6768  -1.3198   H         1 RES1   0.0000
    14 H14     -3.4307   2.4648  -0.5216   H         1 RES1   0.0000
    15 H15     -3.5774   1.6187   1.5994   H         1 RES1   0.0000
    16 H16     -1.8136   4.2688  -0.0718   H         1 RES1   0.0000
    17 H17     -0.5727   3.0920   0.3928   H         1 RES1   0.0000
    18 H18     -0.3875   3.8831  -1.7782   H         1 RES1   0.0000
    19 H19     -1.9663  -2.9478  -0.8284   H         1 RES1   0.0000
    20 H20     -1.2918  -1.4057  -1.1929   H         1 RES1   0.0000
    21 H21     -0.3150  -1.3560   1.1816   H         1 RES1   0.0000
    22 H22     -1.0013  -2.9439   1.4495   H         1 RES1   0.0000
    23 H23      1.4059  -3.1142   0.8103   H         1 RES1   0.0000
    24 H24      0.4007  -3.8711  -0.4182   H         1 RES1   0.0000
    25 H25      1.0808  -2.2705  -0.6984   H         1 RES1   0.0000
@<TRIPOS>BOND
     1     1     2    1
     2     1     7    1
     3     2     3    1
     4     2    12    1
     5     2    13    1
     6     3     4    1
     7     3     5    1
     8     3    14    1
     9     4    15    1
    10     5     6    1
    11     5    16    1
    12     5    17    1
    13     6    18    1
    14     7     8    2
    15     7     9    1
    16     9    10    1
    17     9    19    1
    18     9    20    1
    19    10    11    1
    20    10    21    1
    21    10    22    1
    22    11    23    1
    23    11    24    1
    24    11    25    1
@<TRIPOS>SUBSTRUCTURE
     1 RES1        1 GROUP             0 ****  ****    0  
