@<TRIPOS>MOLECULE
N-ethylacetamide
    15    14     1     0     0
SMALL
NO_CHARGES
****
Generated from the CSD

@<TRIPOS>ATOM
     1 C1      -0.1152  -1.4140   0.0000   C.2       1 RES1   0.0000
     2 C2      -1.4869  -2.0600  -0.0001   C.3       1 RES1   0.0000
     3 O3       0.9048  -2.0617   0.0001   O.2       1 RES1   0.0000
     4 N4      -0.1279  -0.0461   0.0000   N.am      1 RES1   0.0000
     5 C5       1.1072   0.7418   0.0002   C.3       1 RES1   0.0000
     6 C6       0.7737   2.2377  -0.0001   C.3       1 RES1   0.0000
     7 H7      -2.2889  -1.3233   0.0002   H         1 RES1   0.0000
     8 H8      -1.5998  -2.6851  -0.8846   H         1 RES1   0.0000
     9 H9      -1.5998  -2.6856   0.8841   H         1 RES1   0.0000
    10 H10     -1.0213   0.4355   0.0000   H         1 RES1   0.0000
    11 H11      1.6949   0.4983   0.8841   H         1 RES1   0.0000
    12 H12      1.6952   0.4981  -0.8834   H         1 RES1   0.0000
    13 H13      1.6811   2.8399  -0.0000   H         1 RES1   0.0000
    14 H14      0.1940   2.5097  -0.8810   H         1 RES1   0.0000
    15 H15      0.1937   2.5099   0.8805   H         1 RES1   0.0000
@<TRIPOS>BOND
     1     1     2    1
     2     1     3    2
     3     1     4   am
     4     2     7    1
     5     2     8    1
     6     2     9    1
     7     4     5    1
     8     4    10    1
     9     5     6    1
    10     5    11    1
    11     5    12    1
    12     6    13    1
    13     6    14    1
    14     6    15    1
@<TRIPOS>SUBSTRUCTURE
     1 RES1        1 GROUP             0 ****  ****    0  
