@<TRIPOS>MOLECULE
phthalamide
    20    20     1     0     0
SMALL
NO_CHARGES
****
Generated from the CSD

@<TRIPOS>ATOM
     1 N1       2.2153  -1.9802   0.1666   N.am      1 RES1   0.0000
     2 C2       0.9071  -1.6958  -0.0632   C.2       1 RES1   0.0000
     3 O3       0.0994  -2.6015  -0.0872   O.2       1 RES1   0.0000
     4 C4       0.6727  -0.2221  -0.2099   C.ar      1 RES1   0.0000
     5 C5       1.4663   0.4998  -1.1064   C.ar      1 RES1   0.0000
     6 C6       1.2657   1.8621  -1.3034   C.ar      1 RES1   0.0000
     7 C7       0.2497   2.5181  -0.6050   C.ar      1 RES1   0.0000
     8 C8      -0.5456   1.8020   0.2830   C.ar      1 RES1   0.0000
     9 C9      -0.3388   0.4379   0.4995   C.ar      1 RES1   0.0000
    10 C10     -1.2476  -0.2371   1.4906   C.2       1 RES1   0.0000
    11 N11     -0.5953  -1.0631   2.3538   N.am      1 RES1   0.0000
    12 O12     -2.4400  -0.0546   1.6404   O.2       1 RES1   0.0000
    13 H        2.9368  -1.2664   0.1555   H         1 RES1   0.0000
    14 H        2.4356  -2.9709   0.1553   H         1 RES1   0.0000
    15 H        2.2417   0.0140  -1.6969   H         1 RES1   0.0000
    16 H        1.8840   2.4133  -2.0104   H         1 RES1   0.0000
    17 H        0.0747   3.5817  -0.7603   H         1 RES1   0.0000
    18 H       -1.3365   2.3338   0.8099   H         1 RES1   0.0000
    19 H        0.3617  -1.3576   2.1875   H         1 RES1   0.0000
    20 H       -1.2314  -1.6443   2.8903   H         1 RES1   0.0000
@<TRIPOS>BOND
     1     1     2   am
     2     2     3    2
     3     2     4    1
     4     4     5   ar
     5     5     6   ar
     6     6     7   ar
     7     7     8   ar
     8     8     9   ar
     9     9     4   ar
    10     9    10    1
    11    10    11   am
    12    10    12    2
    13     1    13    1
    14     1    14    1
    15     5    15    1
    16     6    16    1
    17     7    17    1
    18     8    18    1
    19    11    19    1
    20    11    20    1
@<TRIPOS>SUBSTRUCTURE
     1 RES1        1 GROUP             0 ****  ****    0  
