@<TRIPOS>MOLECULE
suberic_acid
    26    25     1     0     0
SMALL
NO_CHARGES
****
Generated from the CSD

@<TRIPOS>ATOM
     1 C1      -2.2701  -3.9008   0.0041   C.2       1 RES1   0.0000
     2 C2      -1.0136  -3.0489  -0.0002   C.3       1 RES1   0.0000
     3 C3      -1.2255  -1.5267   0.0003   C.3       1 RES1   0.0000
     4 C4       0.1080  -0.7612   0.0005   C.3       1 RES1   0.0000
     5 C5      -0.1079   0.7612   0.0003   C.3       1 RES1   0.0000
     6 C6       1.2255   1.5267   0.0005   C.3       1 RES1   0.0000
     7 C7       1.0136   3.0489  -0.0005   C.3       1 RES1   0.0000
     8 C8       2.2701   3.9008   0.0041   C.2       1 RES1   0.0000
     9 O9      -2.2995  -5.1083   0.0181   O.2       1 RES1   0.0000
    10 O10     -3.4037  -3.1773  -0.0116   O.3       1 RES1   0.0000
    11 O11      2.2995   5.1083   0.0183   O.2       1 RES1   0.0000
    12 O12      3.4037   3.1773  -0.0115   O.3       1 RES1   0.0000
    13 H13     -0.4316  -3.3314   0.8758   H         1 RES1   0.0000
    14 H14     -0.4364  -3.3320  -0.8792   H         1 RES1   0.0000
    15 H15     -1.7978  -1.2377  -0.8800   H         1 RES1   0.0000
    16 H16     -1.7976  -1.2386   0.8810   H         1 RES1   0.0000
    17 H17      0.6873  -1.0437   0.8783   H         1 RES1   0.0000
    18 H18      0.6875  -1.0440  -0.8770   H         1 RES1   0.0000
    19 H19     -0.6871   1.0438  -0.8775   H         1 RES1   0.0000
    20 H20     -0.6877   1.0439   0.8777   H         1 RES1   0.0000
    21 H21      1.7973   1.2388   0.8815   H         1 RES1   0.0000
    22 H22      1.7982   1.2375  -0.8795   H         1 RES1   0.0000
    23 H23      0.4368   3.3318  -0.8798   H         1 RES1   0.0000
    24 H24      0.4313   3.3316   0.8752   H         1 RES1   0.0000
    25 H25     -4.1694  -3.8096  -0.0091   H         1 RES1   0.0000
    26 H26      4.1694   3.8096  -0.0089   H         1 RES1   0.0000
@<TRIPOS>BOND
     1     1     2    1
     2     1     9    2
     3     1    10    1
     4     2     3    1
     5     2    13    1
     6     2    14    1
     7     3     4    1
     8     3    15    1
     9     3    16    1
    10     4     5    1
    11     4    17    1
    12     4    18    1
    13     5     6    1
    14     5    19    1
    15     5    20    1
    16     6     7    1
    17     6    21    1
    18     6    22    1
    19     7     8    1
    20     7    23    1
    21     7    24    1
    22     8    11    2
    23     8    12    1
    24    10    25    1
    25    12    26    1
@<TRIPOS>SUBSTRUCTURE
     1 RES1        1 GROUP             0 ****  ****    0  
