@<TRIPOS>MOLECULE
drug-sacubitril_mmff94_00010
    59    60     1     0     0
SMALL
NO_CHARGES
****
Generated from the CSD

@<TRIPOS>ATOM
     1 O1      39.9222  24.6121 -13.0174   O.3       1 RES1   0.0000
     2 O2      39.7441  23.4341 -11.1283   O.2       1 RES1   0.0000
     3 O3      33.5480  25.1557 -12.9868   O.2       1 RES1   0.0000
     4 O4      31.0527  28.7771 -10.6235   O.3       1 RES1   0.0000
     5 O5      32.2694  27.8415  -9.0185   O.2       1 RES1   0.0000
     6 N6      34.8262  24.1285 -11.4476   N.am      1 RES1   0.0000
     7 C7      35.4131  23.1644 -12.3786   C.3       1 RES1   0.0000
     8 C8      36.9097  23.0267 -12.0801   C.3       1 RES1   0.0000
     9 C9      37.7511  24.3106 -12.1838   C.3       1 RES1   0.0000
    10 C10     34.6295  21.8491 -12.2875   C.3       1 RES1   0.0000
    11 C11     35.0345  20.8272 -13.3219   C.ar      1 RES1   0.0000
    12 C12     37.3460  25.2943 -11.0885   C.3       1 RES1   0.0000
    13 C13     39.2337  24.0536 -12.0259   C.2       1 RES1   0.0000
    14 C14     33.9381  25.0498 -11.8274   C.2       1 RES1   0.0000
    15 C15     34.4129  20.7763 -14.5575   C.ar      1 RES1   0.0000
    16 C16     36.0470  19.9179 -13.0700   C.ar      1 RES1   0.0000
    17 C17     33.4366  25.9634 -10.7356   C.3       1 RES1   0.0000
    18 C18     35.8042  18.9192 -15.2685   C.ar      1 RES1   0.0000
    19 C19     34.7870  19.8436 -15.5083   C.ar      1 RES1   0.0000
    20 C20     36.4236  18.9855 -14.0201   C.ar      1 RES1   0.0000
    21 C21     32.4322  26.9807 -11.2470   C.3       1 RES1   0.0000
    22 C22     36.2084  17.9125 -16.2935   C.ar      1 RES1   0.0000
    23 C23     41.3700  24.4456 -12.9839   C.3       1 RES1   0.0000
    24 C24     37.2266  16.9899 -16.0481   C.ar      1 RES1   0.0000
    25 C25     35.5853  17.8508 -17.5409   C.ar      1 RES1   0.0000
    26 C26     31.9191  27.9010 -10.1777   C.2       1 RES1   0.0000
    27 C27     41.9410  25.1364 -14.1658   C.3       1 RES1   0.0000
    28 C28     37.6006  16.0562 -17.0003   C.ar      1 RES1   0.0000
    29 C29     35.9614  16.9158 -18.4911   C.ar      1 RES1   0.0000
    30 C30     36.9692  16.0171 -18.2230   C.ar      1 RES1   0.0000
    31 H31     35.3024  23.5566 -13.3885   H         1 RES1   0.0000
    32 H32     36.9963  22.6635 -11.0571   H         1 RES1   0.0000
    33 H33     37.3407  22.2681 -12.7318   H         1 RES1   0.0000
    34 H34     37.5644  24.7777 -13.1497   H         1 RES1   0.0000
    35 H35     34.7746  21.4179 -11.2981   H         1 RES1   0.0000
    36 H36     33.5683  22.0635 -12.4053   H         1 RES1   0.0000
    37 H37     35.1268  24.1137 -10.4783   H         1 RES1   0.0000
    38 H38     37.0581  24.7649 -10.1814   H         1 RES1   0.0000
    39 H39     36.5013  25.9024 -11.4090   H         1 RES1   0.0000
    40 H40     38.1713  25.9616 -10.8446   H         1 RES1   0.0000
    41 H41     33.6157  21.4824 -14.7850   H         1 RES1   0.0000
    42 H42     36.5561  19.9368 -12.1075   H         1 RES1   0.0000
    43 H43     34.2822  26.4874 -10.2925   H         1 RES1   0.0000
    44 H44     32.9720  25.3638  -9.9542   H         1 RES1   0.0000
    45 H45     34.2637  19.8444 -16.4633   H         1 RES1   0.0000
    46 H46     37.2263  18.2929 -13.7712   H         1 RES1   0.0000
    47 H47     31.5897  26.4527 -11.6912   H         1 RES1   0.0000
    48 H48     32.9000  27.5762 -12.0296   H         1 RES1   0.0000
    49 H49     41.7771  24.8687 -12.0667   H         1 RES1   0.0000
    50 H50     41.6285  23.3879 -13.0042   H         1 RES1   0.0000
    51 H51     37.7485  16.9904 -15.0923   H         1 RES1   0.0000
    52 H52     34.7844  18.5458 -17.7888   H         1 RES1   0.0000
    53 H53     41.5471  24.7125 -15.0884   H         1 RES1   0.0000
    54 H54     41.6962  26.1974 -14.1484   H         1 RES1   0.0000
    55 H55     43.0255  25.0387 -14.1834   H         1 RES1   0.0000
    56 H56     38.3988  15.3487 -16.7805   H         1 RES1   0.0000
    57 H57     35.4570  16.8915 -19.4560   H         1 RES1   0.0000
    58 H58     37.2640  15.2825 -18.9709   H         1 RES1   0.0000
    59 H59     30.7315  29.3711  -9.8954   H         1 RES1   0.0000
@<TRIPOS>BOND
     1     1    13    1
     2     1    23    1
     3     2    13    2
     4     3    14    2
     5     4    26    1
     6     4    59    1
     7     5    26    2
     8     6     7    1
     9     6    14   am
    10     6    37    1
    11     7     8    1
    12     7    10    1
    13     7    31    1
    14     8     9    1
    15     8    32    1
    16     8    33    1
    17     9    12    1
    18     9    13    1
    19     9    34    1
    20    10    11    1
    21    10    35    1
    22    10    36    1
    23    11    15   ar
    24    11    16   ar
    25    12    38    1
    26    12    39    1
    27    12    40    1
    28    14    17    1
    29    15    19   ar
    30    15    41    1
    31    16    20   ar
    32    16    42    1
    33    17    21    1
    34    17    43    1
    35    17    44    1
    36    18    19   ar
    37    18    20   ar
    38    18    22    1
    39    19    45    1
    40    20    46    1
    41    21    26    1
    42    21    47    1
    43    21    48    1
    44    22    24   ar
    45    22    25   ar
    46    23    27    1
    47    23    49    1
    48    23    50    1
    49    24    28   ar
    50    24    51    1
    51    25    29   ar
    52    25    52    1
    53    27    53    1
    54    27    54    1
    55    27    55    1
    56    28    30   ar
    57    28    56    1
    58    29    30   ar
    59    29    57    1
    60    30    58    1
@<TRIPOS>SUBSTRUCTURE
     1 RES1        1 GROUP             0 ****  ****    0  
