@<TRIPOS>MOLECULE
drug-sacubitril_mmff94_00008
    59    60     1     0     0
SMALL
NO_CHARGES
****
Generated from the CSD

@<TRIPOS>ATOM
     1 O1      38.6173  25.3220 -12.5037   O.3       1 RES1   0.0000
     2 O2      39.0642  23.3311 -13.4116   O.2       1 RES1   0.0000
     3 O3      34.4600  25.3038 -12.9641   O.2       1 RES1   0.0000
     4 O4      32.3305  29.3240 -10.9076   O.3       1 RES1   0.0000
     5 O5      32.8639  28.0591  -9.1619   O.2       1 RES1   0.0000
     6 N6      35.0472  23.9378 -11.2766   N.am      1 RES1   0.0000
     7 C7      35.6166  22.8980 -12.1343   C.3       1 RES1   0.0000
     8 C8      36.9199  22.3903 -11.5083   C.3       1 RES1   0.0000
     9 C9      38.0074  23.4444 -11.2380   C.3       1 RES1   0.0000
    10 C10     34.5602  21.8091 -12.3588   C.3       1 RES1   0.0000
    11 C11     34.9712  20.7615 -13.3646   C.ar      1 RES1   0.0000
    12 C12     39.1409  22.8318 -10.4187   C.3       1 RES1   0.0000
    13 C13     38.6209  23.9920 -12.5079   C.2       1 RES1   0.0000
    14 C14     34.5129  25.0608 -11.7617   C.2       1 RES1   0.0000
    15 C15     34.6845  20.9116 -14.7103   C.ar      1 RES1   0.0000
    16 C16     35.6568  19.6248 -12.9730   C.ar      1 RES1   0.0000
    17 C17     33.9719  26.0244 -10.7336   C.3       1 RES1   0.0000
    18 C18     35.7551  18.8027 -15.2543   C.ar      1 RES1   0.0000
    19 C19     35.0655  19.9546 -15.6338   C.ar      1 RES1   0.0000
    20 C20     36.0401  18.6674 -13.8952   C.ar      1 RES1   0.0000
    21 C21     33.3827  27.2737 -11.3637   C.3       1 RES1   0.0000
    22 C22     36.1665  17.7695 -16.2498   C.ar      1 RES1   0.0000
    23 C23     39.1883  25.9819 -13.6713   C.3       1 RES1   0.0000
    24 C24     36.8562  16.6189 -15.8644   C.ar      1 RES1   0.0000
    25 C25     35.8788  17.9101 -17.6083   C.ar      1 RES1   0.0000
    26 C26     32.8379  28.2476 -10.3595   C.2       1 RES1   0.0000
    27 C27     39.0871  27.4477 -13.4681   C.3       1 RES1   0.0000
    28 C28     37.2373  15.6610 -16.7894   C.ar      1 RES1   0.0000
    29 C29     36.2610  16.9503 -18.5309   C.ar      1 RES1   0.0000
    30 C30     36.9406  15.8245 -18.1237   C.ar      1 RES1   0.0000
    31 H31     35.8539  23.3452 -13.0985   H         1 RES1   0.0000
    32 H32     36.6575  21.9415 -10.5514   H         1 RES1   0.0000
    33 H33     37.3386  21.6026 -12.1328   H         1 RES1   0.0000
    34 H34     37.5723  24.2608 -10.6635   H         1 RES1   0.0000
    35 H35     34.3516  21.3167 -11.4102   H         1 RES1   0.0000
    36 H36     33.6388  22.2786 -12.7003   H         1 RES1   0.0000
    37 H37     35.0842  23.8124 -10.2701   H         1 RES1   0.0000
    38 H38     39.6095  22.0118 -10.9608   H         1 RES1   0.0000
    39 H39     38.7671  22.4433  -9.4726   H         1 RES1   0.0000
    40 H40     39.9059  23.5758 -10.2014   H         1 RES1   0.0000
    41 H41     34.1497  21.7981 -15.0479   H         1 RES1   0.0000
    42 H42     35.8988  19.4816 -11.9209   H         1 RES1   0.0000
    43 H43     34.7747  26.3104 -10.0556   H         1 RES1   0.0000
    44 H44     33.2040  25.5243 -10.1453   H         1 RES1   0.0000
    45 H45     34.8127  20.1201 -16.6800   H         1 RES1   0.0000
    46 H46     36.5776  17.7917 -13.5344   H         1 RES1   0.0000
    47 H47     32.5822  26.9830 -12.0424   H         1 RES1   0.0000
    48 H48     34.1530  27.7692 -11.9528   H         1 RES1   0.0000
    49 H49     40.2297  25.6898 -13.7979   H         1 RES1   0.0000
    50 H50     38.6502  25.6881 -14.5713   H         1 RES1   0.0000
    51 H51     37.1080  16.4551 -14.8176   H         1 RES1   0.0000
    52 H52     35.3431  18.7875 -17.9675   H         1 RES1   0.0000
    53 H53     38.0476  27.7504 -13.3511   H         1 RES1   0.0000
    54 H54     39.6315  27.7522 -12.5754   H         1 RES1   0.0000
    55 H55     39.5031  27.9851 -14.3190   H         1 RES1   0.0000
    56 H56     37.7747  14.7732 -16.4592   H         1 RES1   0.0000
    57 H57     36.0226  17.0872 -19.5846   H         1 RES1   0.0000
    58 H58     37.2406  15.0706 -18.8501   H         1 RES1   0.0000
    59 H59     31.9788  29.9486 -10.2204   H         1 RES1   0.0000
@<TRIPOS>BOND
     1     1    13    1
     2     1    23    1
     3     2    13    2
     4     3    14    2
     5     4    26    1
     6     4    59    1
     7     5    26    2
     8     6     7    1
     9     6    14   am
    10     6    37    1
    11     7     8    1
    12     7    10    1
    13     7    31    1
    14     8     9    1
    15     8    32    1
    16     8    33    1
    17     9    12    1
    18     9    13    1
    19     9    34    1
    20    10    11    1
    21    10    35    1
    22    10    36    1
    23    11    15   ar
    24    11    16   ar
    25    12    38    1
    26    12    39    1
    27    12    40    1
    28    14    17    1
    29    15    19   ar
    30    15    41    1
    31    16    20   ar
    32    16    42    1
    33    17    21    1
    34    17    43    1
    35    17    44    1
    36    18    19   ar
    37    18    20   ar
    38    18    22    1
    39    19    45    1
    40    20    46    1
    41    21    26    1
    42    21    47    1
    43    21    48    1
    44    22    24   ar
    45    22    25   ar
    46    23    27    1
    47    23    49    1
    48    23    50    1
    49    24    28   ar
    50    24    51    1
    51    25    29   ar
    52    25    52    1
    53    27    53    1
    54    27    54    1
    55    27    55    1
    56    28    30   ar
    57    28    56    1
    58    29    30   ar
    59    29    57    1
    60    30    58    1
@<TRIPOS>SUBSTRUCTURE
     1 RES1        1 GROUP             0 ****  ****    0  
