@<TRIPOS>MOLECULE
drug-sacubitril_mmff94_00002
    59    60     1     0     0
SMALL
NO_CHARGES
****
Generated from the CSD

@<TRIPOS>ATOM
     1 O1      40.5988  26.7219 -11.9362   O.3       1 RES1   0.0000
     2 O2      40.5351  25.5181 -10.0561   O.2       1 RES1   0.0000
     3 O3      35.4688  23.4456 -13.9089   O.2       1 RES1   0.0000
     4 O4      30.7545  24.7374 -12.8926   O.3       1 RES1   0.0000
     5 O5      31.6971  24.5644 -10.8892   O.2       1 RES1   0.0000
     6 N6      36.5313  23.2395 -11.9374   N.am      1 RES1   0.0000
     7 C7      37.8244  22.8741 -12.5166   C.3       1 RES1   0.0000
     8 C8      38.9369  23.6114 -11.7636   C.3       1 RES1   0.0000
     9 C9      38.8680  25.1483 -11.7702   C.3       1 RES1   0.0000
    10 C10     37.9592  21.3465 -12.5008   C.3       1 RES1   0.0000
    11 C11     36.9450  20.6377 -13.3651   C.ar      1 RES1   0.0000
    12 C12     37.6475  25.6230 -10.9852   C.3       1 RES1   0.0000
    13 C13     40.0825  25.7918 -11.1378   C.2       1 RES1   0.0000
    14 C14     35.4539  23.4969 -12.6822   C.2       1 RES1   0.0000
    15 C15     35.7199  20.2458 -12.8539   C.ar      1 RES1   0.0000
    16 C16     37.2051  20.3684 -14.6975   C.ar      1 RES1   0.0000
    17 C17     34.2031  23.8588 -11.9190   C.3       1 RES1   0.0000
    18 C18     35.0358  19.3206 -14.9906   C.ar      1 RES1   0.0000
    19 C19     34.7874  19.6009 -13.6467   C.ar      1 RES1   0.0000
    20 C20     36.2732  19.7250 -15.4923   C.ar      1 RES1   0.0000
    21 C21     33.0248  24.1364 -12.8354   C.3       1 RES1   0.0000
    22 C22     34.0305  18.6247 -15.8467   C.ar      1 RES1   0.0000
    23 C23     41.7751  27.4279 -11.4434   C.3       1 RES1   0.0000
    24 C24     34.2843  18.3466 -17.1907   C.ar      1 RES1   0.0000
    25 C25     32.7939  18.2225 -15.3396   C.ar      1 RES1   0.0000
    26 C26     31.7685  24.4987 -12.0979   C.2       1 RES1   0.0000
    27 C27     42.1879  28.4114 -12.4741   C.3       1 RES1   0.0000
    28 C28     33.3505  17.7008 -17.9839   C.ar      1 RES1   0.0000
    29 C29     31.8621  17.5767 -16.1352   C.ar      1 RES1   0.0000
    30 C30     32.1382  17.3146 -17.4582   C.ar      1 RES1   0.0000
    31 H31     37.8380  23.2058 -13.5538   H         1 RES1   0.0000
    32 H32     38.8840  23.2884 -10.7250   H         1 RES1   0.0000
    33 H33     39.9052  23.2994 -12.1520   H         1 RES1   0.0000
    34 H34     38.7687  25.4926 -12.7986   H         1 RES1   0.0000
    35 H35     38.9569  21.0752 -12.8428   H         1 RES1   0.0000
    36 H36     37.8511  20.9948 -11.4758   H         1 RES1   0.0000
    37 H37     36.4574  23.3271 -10.9289   H         1 RES1   0.0000
    38 H38     37.4428  24.9559 -10.1491   H         1 RES1   0.0000
    39 H39     36.7647  25.6489 -11.6224   H         1 RES1   0.0000
    40 H40     37.8090  26.6243 -10.5886   H         1 RES1   0.0000
    41 H41     35.4861  20.4485 -11.8098   H         1 RES1   0.0000
    42 H42     38.1596  20.6681 -15.1277   H         1 RES1   0.0000
    43 H43     34.3988  24.7408 -11.3110   H         1 RES1   0.0000
    44 H44     33.9475  23.0422 -11.2454   H         1 RES1   0.0000
    45 H45     33.8401  19.3112 -13.1943   H         1 RES1   0.0000
    46 H46     36.5279  19.5373 -16.5343   H         1 RES1   0.0000
    47 H47     32.8342  23.2530 -13.4430   H         1 RES1   0.0000
    48 H48     33.2856  24.9517 -13.5086   H         1 RES1   0.0000
    49 H49     41.5455  27.9361 -10.5080   H         1 RES1   0.0000
    50 H50     42.5831  26.7243 -11.2486   H         1 RES1   0.0000
    51 H51     35.2323  18.6367 -17.6412   H         1 RES1   0.0000
    52 H52     32.5400  18.4131 -14.2979   H         1 RES1   0.0000
    53 H53     42.4297  27.9109 -13.4105   H         1 RES1   0.0000
    54 H54     41.3892  29.1258 -12.6679   H         1 RES1   0.0000
    55 H55     43.0672  28.9655 -12.1488   H         1 RES1   0.0000
    56 H56     33.5765  17.4972 -19.0295   H         1 RES1   0.0000
    57 H57     30.9054  17.2746 -15.7117   H         1 RES1   0.0000
    58 H58     31.4048  16.8067 -18.0827   H         1 RES1   0.0000
    59 H59     29.9391  24.9739 -12.3777   H         1 RES1   0.0000
@<TRIPOS>BOND
     1     1    13    1
     2     1    23    1
     3     2    13    2
     4     3    14    2
     5     4    26    1
     6     4    59    1
     7     5    26    2
     8     6     7    1
     9     6    14   am
    10     6    37    1
    11     7     8    1
    12     7    10    1
    13     7    31    1
    14     8     9    1
    15     8    32    1
    16     8    33    1
    17     9    12    1
    18     9    13    1
    19     9    34    1
    20    10    11    1
    21    10    35    1
    22    10    36    1
    23    11    15   ar
    24    11    16   ar
    25    12    38    1
    26    12    39    1
    27    12    40    1
    28    14    17    1
    29    15    19   ar
    30    15    41    1
    31    16    20   ar
    32    16    42    1
    33    17    21    1
    34    17    43    1
    35    17    44    1
    36    18    19   ar
    37    18    20   ar
    38    18    22    1
    39    19    45    1
    40    20    46    1
    41    21    26    1
    42    21    47    1
    43    21    48    1
    44    22    24   ar
    45    22    25   ar
    46    23    27    1
    47    23    49    1
    48    23    50    1
    49    24    28   ar
    50    24    51    1
    51    25    29   ar
    52    25    52    1
    53    27    53    1
    54    27    54    1
    55    27    55    1
    56    28    30   ar
    57    28    56    1
    58    29    30   ar
    59    29    57    1
    60    30    58    1
@<TRIPOS>SUBSTRUCTURE
     1 RES1        1 GROUP             0 ****  ****    0  
