@<TRIPOS>MOLECULE
drug-sacubitril_mmff94_00005
    59    60     1     0     0
SMALL
NO_CHARGES
****
Generated from the CSD

@<TRIPOS>ATOM
     1 O1      40.0975  26.7845 -11.9113   O.3       1 RES1   0.0000
     2 O2      40.0680  25.5774 -10.0325   O.2       1 RES1   0.0000
     3 O3      35.4884  23.8839 -13.9630   O.2       1 RES1   0.0000
     4 O4      31.8186  26.6923 -11.5288   O.3       1 RES1   0.0000
     5 O5      31.6024  24.5742 -10.8970   O.2       1 RES1   0.0000
     6 N6      36.2964  23.0188 -12.0507   N.am      1 RES1   0.0000
     7 C7      37.6342  22.7480 -12.5778   C.3       1 RES1   0.0000
     8 C8      38.6604  23.5620 -11.7824   C.3       1 RES1   0.0000
     9 C9      38.4808  25.0899 -11.7925   C.3       1 RES1   0.0000
    10 C10     37.8775  21.2339 -12.5546   C.3       1 RES1   0.0000
    11 C11     36.9516  20.4555 -13.4573   C.ar      1 RES1   0.0000
    12 C12     37.2076  25.4744 -11.0426   C.3       1 RES1   0.0000
    13 C13     39.6275  25.8188 -11.1269   C.2       1 RES1   0.0000
    14 C14     35.3277  23.5669 -12.7877   C.2       1 RES1   0.0000
    15 C15     35.7386  19.9761 -12.9945   C.ar      1 RES1   0.0000
    16 C16     37.2829  20.2075 -14.7781   C.ar      1 RES1   0.0000
    17 C17     34.0094  23.7759 -12.0832   C.3       1 RES1   0.0000
    18 C18     35.2075  19.0073 -15.1553   C.ar      1 RES1   0.0000
    19 C19     34.8867  19.2672 -13.8226   C.ar      1 RES1   0.0000
    20 C20     36.4317  19.5001 -15.6082   C.ar      1 RES1   0.0000
    21 C21     33.5348  25.2162 -12.1570   C.3       1 RES1   0.0000
    22 C22     34.2893  18.2424 -16.0495   C.ar      1 RES1   0.0000
    23 C23     41.2053  27.5732 -11.3864   C.3       1 RES1   0.0000
    24 C24     34.6154  17.9852 -17.3820   C.ar      1 RES1   0.0000
    25 C25     33.0657  17.7519 -15.5911   C.ar      1 RES1   0.0000
    26 C26     32.2242  25.4481 -11.4625   C.2       1 RES1   0.0000
    27 C27     41.5748  28.5851 -12.4061   C.3       1 RES1   0.0000
    28 C28     33.7623  17.2752 -18.2106   C.ar      1 RES1   0.0000
    29 C29     32.2147  17.0421 -16.4221   C.ar      1 RES1   0.0000
    30 C30     32.5610  16.8024 -17.7327   C.ar      1 RES1   0.0000
    31 H31     37.6651  23.0814 -13.6141   H         1 RES1   0.0000
    32 H32     38.5906  23.2336 -10.7464   H         1 RES1   0.0000
    33 H33     39.6631  23.3217 -12.1326   H         1 RES1   0.0000
    34 H34     38.3859  25.4272 -12.8236   H         1 RES1   0.0000
    35 H35     38.9048  21.0353 -12.8565   H         1 RES1   0.0000
    36 H36     37.7544  20.8739 -11.5342   H         1 RES1   0.0000
    37 H37     36.1049  22.8061 -11.0769   H         1 RES1   0.0000
    38 H38     36.8970  24.6735 -10.3733   H         1 RES1   0.0000
    39 H39     36.3934  25.6696 -11.7390   H         1 RES1   0.0000
    40 H40     37.3667  26.3718 -10.4466   H         1 RES1   0.0000
    41 H41     35.4497  20.1600 -11.9607   H         1 RES1   0.0000
    42 H42     38.2297  20.5755 -15.1706   H         1 RES1   0.0000
    43 H43     34.1134  23.4867 -11.0385   H         1 RES1   0.0000
    44 H44     33.2581  23.1284 -12.5329   H         1 RES1   0.0000
    45 H45     33.9455  18.9097 -13.4076   H         1 RES1   0.0000
    46 H46     36.7403  19.3327 -16.6391   H         1 RES1   0.0000
    47 H47     33.4344  25.5018 -13.2031   H         1 RES1   0.0000
    48 H48     34.2899  25.8603 -11.7087   H         1 RES1   0.0000
    49 H49     40.9134  28.0625 -10.4583   H         1 RES1   0.0000
    50 H50     42.0563  26.9296 -11.1683   H         1 RES1   0.0000
    51 H51     35.5573  18.3432 -17.7951   H         1 RES1   0.0000
    52 H52     32.7579  17.9223 -14.5605   H         1 RES1   0.0000
    53 H53     41.8784  28.1042 -13.3348   H         1 RES1   0.0000
    54 H54     40.7323  29.2402 -12.6229   H         1 RES1   0.0000
    55 H55     42.4023  29.2009 -12.0568   H         1 RES1   0.0000
    56 H56     34.0436  17.0899 -19.2462   H         1 RES1   0.0000
    57 H57     31.2661  16.6715 -16.0364   H         1 RES1   0.0000
    58 H58     31.8911  16.2442 -18.3851   H         1 RES1   0.0000
    59 H59     30.9510  26.8153 -11.0617   H         1 RES1   0.0000
@<TRIPOS>BOND
     1     1    13    1
     2     1    23    1
     3     2    13    2
     4     3    14    2
     5     4    26    1
     6     4    59    1
     7     5    26    2
     8     6     7    1
     9     6    14   am
    10     6    37    1
    11     7     8    1
    12     7    10    1
    13     7    31    1
    14     8     9    1
    15     8    32    1
    16     8    33    1
    17     9    12    1
    18     9    13    1
    19     9    34    1
    20    10    11    1
    21    10    35    1
    22    10    36    1
    23    11    15   ar
    24    11    16   ar
    25    12    38    1
    26    12    39    1
    27    12    40    1
    28    14    17    1
    29    15    19   ar
    30    15    41    1
    31    16    20   ar
    32    16    42    1
    33    17    21    1
    34    17    43    1
    35    17    44    1
    36    18    19   ar
    37    18    20   ar
    38    18    22    1
    39    19    45    1
    40    20    46    1
    41    21    26    1
    42    21    47    1
    43    21    48    1
    44    22    24   ar
    45    22    25   ar
    46    23    27    1
    47    23    49    1
    48    23    50    1
    49    24    28   ar
    50    24    51    1
    51    25    29   ar
    52    25    52    1
    53    27    53    1
    54    27    54    1
    55    27    55    1
    56    28    30   ar
    57    28    56    1
    58    29    30   ar
    59    29    57    1
    60    30    58    1
@<TRIPOS>SUBSTRUCTURE
     1 RES1        1 GROUP             0 ****  ****    0  
