@<TRIPOS>MOLECULE
drug-sacubitril_mmff94_00006
    59    60     1     0     0
SMALL
NO_CHARGES
****
Generated from the CSD

@<TRIPOS>ATOM
     1 O1      38.3882  25.5364 -12.8625   O.3       1 RES1   0.0000
     2 O2      40.1333  26.4581 -11.8172   O.2       1 RES1   0.0000
     3 O3      35.9891  24.1463 -13.3366   O.2       1 RES1   0.0000
     4 O4      31.2592  25.7445 -13.3340   O.3       1 RES1   0.0000
     5 O5      31.5158  24.8540 -11.3158   O.2       1 RES1   0.0000
     6 N6      36.3678  23.2167 -11.3240   N.am      1 RES1   0.0000
     7 C7      37.7613  22.8633 -11.5967   C.3       1 RES1   0.0000
     8 C8      38.6674  23.5913 -10.5981   C.3       1 RES1   0.0000
     9 C9      38.5534  25.1251 -10.5597   C.3       1 RES1   0.0000
    10 C10     37.8977  21.3359 -11.5728   C.3       1 RES1   0.0000
    11 C11     37.1125  20.6384 -12.6568   C.ar      1 RES1   0.0000
    12 C12     39.3081  25.6781  -9.3532   C.3       1 RES1   0.0000
    13 C13     39.1342  25.7865 -11.7902   C.2       1 RES1   0.0000
    14 C14     35.5920  23.8348 -12.2173   C.2       1 RES1   0.0000
    15 C15     35.8052  20.2359 -12.4457   C.ar      1 RES1   0.0000
    16 C16     37.6725  20.3904 -13.8979   C.ar      1 RES1   0.0000
    17 C17     34.1829  24.1311 -11.7650   C.3       1 RES1   0.0000
    18 C18     35.6341  19.3425 -14.6957   C.ar      1 RES1   0.0000
    19 C19     35.0828  19.6014 -13.4405   C.ar      1 RES1   0.0000
    20 C20     36.9512  19.7574 -14.8944   C.ar      1 RES1   0.0000
    21 C21     33.3663  24.8334 -12.8352   C.3       1 RES1   0.0000
    22 C22     34.8557  18.6578 -15.7694   C.ar      1 RES1   0.0000
    23 C23     38.8333  26.1223 -14.1209   C.3       1 RES1   0.0000
    24 C24     35.4122  18.4012 -17.0234   C.ar      1 RES1   0.0000
    25 C25     33.5381  18.2450 -15.5652   C.ar      1 RES1   0.0000
    26 C26     31.9601  25.1386 -12.4075   C.2       1 RES1   0.0000
    27 C27     37.8727  25.7260 -15.1794   C.3       1 RES1   0.0000
    28 C28     34.6887  17.7657 -18.0189   C.ar      1 RES1   0.0000
    29 C29     32.8171  17.6095 -16.5625   C.ar      1 RES1   0.0000
    30 C30     33.3904  17.3687 -17.7906   C.ar      1 RES1   0.0000
    31 H31     38.0104  23.2112 -12.5981   H         1 RES1   0.0000
    32 H32     38.4080  23.2214  -9.6072   H         1 RES1   0.0000
    33 H33     39.7050  23.3186 -10.7853   H         1 RES1   0.0000
    34 H34     37.5038  25.3984 -10.4617   H         1 RES1   0.0000
    35 H35     38.9487  21.0721 -11.6809   H         1 RES1   0.0000
    36 H36     37.5596  20.9681 -10.6052   H         1 RES1   0.0000
    37 H37     35.9832  23.0075 -10.4083   H         1 RES1   0.0000
    38 H38     40.3671  25.4316  -9.4141   H         1 RES1   0.0000
    39 H39     38.9152  25.2604  -8.4274   H         1 RES1   0.0000
    40 H40     39.2145  26.7619  -9.3030   H         1 RES1   0.0000
    41 H41     35.3373  20.4219 -11.4801   H         1 RES1   0.0000
    42 H42     38.6984  20.6988 -14.0935   H         1 RES1   0.0000
    43 H43     34.2182  24.7566 -10.8743   H         1 RES1   0.0000
    44 H44     33.6912  23.1977 -11.4951   H         1 RES1   0.0000
    45 H45     34.0588  19.3026 -13.2214   H         1 RES1   0.0000
    46 H46     37.4390  19.5865 -15.8529   H         1 RES1   0.0000
    47 H47     33.3356  24.2058 -13.7246   H         1 RES1   0.0000
    48 H48     33.8627  25.7648 -13.1037   H         1 RES1   0.0000
    49 H49     38.8759  27.2073 -14.0374   H         1 RES1   0.0000
    50 H50     39.8335  25.7696 -14.3682   H         1 RES1   0.0000
    51 H51     36.4366  18.7004 -17.2404   H         1 RES1   0.0000
    52 H52     33.0513  18.4188 -14.6067   H         1 RES1   0.0000
    53 H53     37.8315  24.6422 -15.2771   H         1 RES1   0.0000
    54 H54     36.8712  26.0839 -14.9454   H         1 RES1   0.0000
    55 H55     38.1656  26.1426 -16.1420   H         1 RES1   0.0000
    56 H56     35.1495  17.5789 -18.9878   H         1 RES1   0.0000
    57 H57     31.7905  17.2988 -16.3740   H         1 RES1   0.0000
    58 H58     32.8225  16.8690 -18.5740   H         1 RES1   0.0000
    59 H59     30.3351  25.9332 -13.0232   H         1 RES1   0.0000
@<TRIPOS>BOND
     1     1    13    1
     2     1    23    1
     3     2    13    2
     4     3    14    2
     5     4    26    1
     6     4    59    1
     7     5    26    2
     8     6     7    1
     9     6    14   am
    10     6    37    1
    11     7     8    1
    12     7    10    1
    13     7    31    1
    14     8     9    1
    15     8    32    1
    16     8    33    1
    17     9    12    1
    18     9    13    1
    19     9    34    1
    20    10    11    1
    21    10    35    1
    22    10    36    1
    23    11    15   ar
    24    11    16   ar
    25    12    38    1
    26    12    39    1
    27    12    40    1
    28    14    17    1
    29    15    19   ar
    30    15    41    1
    31    16    20   ar
    32    16    42    1
    33    17    21    1
    34    17    43    1
    35    17    44    1
    36    18    19   ar
    37    18    20   ar
    38    18    22    1
    39    19    45    1
    40    20    46    1
    41    21    26    1
    42    21    47    1
    43    21    48    1
    44    22    24   ar
    45    22    25   ar
    46    23    27    1
    47    23    49    1
    48    23    50    1
    49    24    28   ar
    50    24    51    1
    51    25    29   ar
    52    25    52    1
    53    27    53    1
    54    27    54    1
    55    27    55    1
    56    28    30   ar
    57    28    56    1
    58    29    30   ar
    59    29    57    1
    60    30    58    1
@<TRIPOS>SUBSTRUCTURE
     1 RES1        1 GROUP             0 ****  ****    0  
