@<TRIPOS>MOLECULE
drug-sacubitril_mmff94_00004
    59    60     1     0     0
SMALL
NO_CHARGES
****
Generated from the CSD

@<TRIPOS>ATOM
     1 O1      40.0899  25.5514 -12.4657   O.3       1 RES1   0.0000
     2 O2      38.3059  26.8792 -12.6713   O.2       1 RES1   0.0000
     3 O3      35.5589  23.6091 -13.5198   O.2       1 RES1   0.0000
     4 O4      30.7045  24.7545 -13.2992   O.3       1 RES1   0.0000
     5 O5      31.3022  24.5799 -11.1675   O.2       1 RES1   0.0000
     6 N6      36.2811  23.4052 -11.3997   N.am      1 RES1   0.0000
     7 C7      37.6633  23.0837 -11.7564   C.3       1 RES1   0.0000
     8 C8      38.6114  23.8406 -10.8203   C.3       1 RES1   0.0000
     9 C9      38.4638  25.3716 -10.7855   C.3       1 RES1   0.0000
    10 C10     37.8384  21.5602 -11.7323   C.3       1 RES1   0.0000
    11 C11     37.0050  20.8360 -12.7613   C.ar      1 RES1   0.0000
    12 C12     39.3104  25.9556  -9.6570   C.3       1 RES1   0.0000
    13 C13     38.9151  26.0328 -12.0693   C.2       1 RES1   0.0000
    14 C14     35.3368  23.6429 -12.3127   C.2       1 RES1   0.0000
    15 C15     35.7235  20.4036 -12.4671   C.ar      1 RES1   0.0000
    16 C16     37.4929  20.5926 -14.0334   C.ar      1 RES1   0.0000
    17 C17     33.9654  23.9589 -11.7674   C.3       1 RES1   0.0000
    18 C18     35.4353  19.4899 -14.6969   C.ar      1 RES1   0.0000
    19 C19     34.9567  19.7445 -13.4113   C.ar      1 RES1   0.0000
    20 C20     36.7270  19.9351 -14.9795   C.ar      1 RES1   0.0000
    21 C21     32.9499  24.2163 -12.8665   C.3       1 RES1   0.0000
    22 C22     34.6089  18.7788 -15.7162   C.ar      1 RES1   0.0000
    23 C23     40.6399  26.1005 -13.6989   C.3       1 RES1   0.0000
    24 C24     35.0928  18.5267 -17.0009   C.ar      1 RES1   0.0000
    25 C25     33.3172  18.3356 -15.4280   C.ar      1 RES1   0.0000
    26 C26     31.5774  24.5331 -12.3474   C.2       1 RES1   0.0000
    27 C27     41.9402  25.4362 -13.9598   C.3       1 RES1   0.0000
    28 C28     34.3247  17.8666 -17.9458   C.ar      1 RES1   0.0000
    29 C29     32.5515  17.6756 -16.3749   C.ar      1 RES1   0.0000
    30 C30     33.0534  17.4399 -17.6350   C.ar      1 RES1   0.0000
    31 H31     37.8410  23.4301 -12.7734   H         1 RES1   0.0000
    32 H32     38.4218  23.4730  -9.8129   H         1 RES1   0.0000
    33 H33     39.6417  23.5903 -11.0689   H         1 RES1   0.0000
    34 H34     37.4209  25.6212 -10.5956   H         1 RES1   0.0000
    35 H35     38.8869  21.3212 -11.9040   H         1 RES1   0.0000
    36 H36     37.5702  21.1914 -10.7434   H         1 RES1   0.0000
    37 H37     36.0364  23.4770 -10.4173   H         1 RES1   0.0000
    38 H38     40.3653  25.7334  -9.8111   H         1 RES1   0.0000
    39 H39     39.0128  25.5391  -8.6958   H         1 RES1   0.0000
    40 H40     39.1952  27.0374  -9.6083   H         1 RES1   0.0000
    41 H41     35.3119  20.5851 -11.4754   H         1 RES1   0.0000
    42 H42     38.4968  20.9244 -14.2942   H         1 RES1   0.0000
    43 H43     34.0298  24.8375 -11.1272   H         1 RES1   0.0000
    44 H44     33.6248  23.1262 -11.1538   H         1 RES1   0.0000
    45 H45     33.9559  19.4226 -13.1274   H         1 RES1   0.0000
    46 H46     37.1585  19.7691 -15.9655   H         1 RES1   0.0000
    47 H47     32.8904  23.3365 -13.5055   H         1 RES1   0.0000
    48 H48     33.2955  25.0479 -13.4788   H         1 RES1   0.0000
    49 H49     39.9549  25.9267 -14.5274   H         1 RES1   0.0000
    50 H50     40.7786  27.1764 -13.6038   H         1 RES1   0.0000
    51 H51     36.0940  18.8491 -17.2828   H         1 RES1   0.0000
    52 H52     32.8866  18.5045 -14.4421   H         1 RES1   0.0000
    53 H53     42.6355  25.6135 -13.1406   H         1 RES1   0.0000
    54 H54     41.8095  24.3604 -14.0668   H         1 RES1   0.0000
    55 H55     42.3909  25.8159 -14.8755   H         1 RES1   0.0000
    56 H56     34.7290  17.6841 -18.9404   H         1 RES1   0.0000
    57 H57     31.5466  17.3414 -16.1213   H         1 RES1   0.0000
    58 H58     32.4505  16.9209 -18.3787   H         1 RES1   0.0000
    59 H59     29.8075  24.9609 -12.9266   H         1 RES1   0.0000
@<TRIPOS>BOND
     1     1    13    1
     2     1    23    1
     3     2    13    2
     4     3    14    2
     5     4    26    1
     6     4    59    1
     7     5    26    2
     8     6     7    1
     9     6    14   am
    10     6    37    1
    11     7     8    1
    12     7    10    1
    13     7    31    1
    14     8     9    1
    15     8    32    1
    16     8    33    1
    17     9    12    1
    18     9    13    1
    19     9    34    1
    20    10    11    1
    21    10    35    1
    22    10    36    1
    23    11    15   ar
    24    11    16   ar
    25    12    38    1
    26    12    39    1
    27    12    40    1
    28    14    17    1
    29    15    19   ar
    30    15    41    1
    31    16    20   ar
    32    16    42    1
    33    17    21    1
    34    17    43    1
    35    17    44    1
    36    18    19   ar
    37    18    20   ar
    38    18    22    1
    39    19    45    1
    40    20    46    1
    41    21    26    1
    42    21    47    1
    43    21    48    1
    44    22    24   ar
    45    22    25   ar
    46    23    27    1
    47    23    49    1
    48    23    50    1
    49    24    28   ar
    50    24    51    1
    51    25    29   ar
    52    25    52    1
    53    27    53    1
    54    27    54    1
    55    27    55    1
    56    28    30   ar
    57    28    56    1
    58    29    30   ar
    59    29    57    1
    60    30    58    1
@<TRIPOS>SUBSTRUCTURE
     1 RES1        1 GROUP             0 ****  ****    0  
