@<TRIPOS>MOLECULE
drug-sacubitril_mmff94_00003
    59    60     1     0     0
SMALL
NO_CHARGES
****
Generated from the CSD

@<TRIPOS>ATOM
     1 O1      38.4743  26.2168 -12.4766   O.3       1 RES1   0.0000
     2 O2      40.2619  24.9587 -12.0190   O.2       1 RES1   0.0000
     3 O3      36.1692  23.9093 -13.6494   O.2       1 RES1   0.0000
     4 O4      32.4376  27.4686 -12.8213   O.3       1 RES1   0.0000
     5 O5      31.6400  25.4801 -12.2366   O.2       1 RES1   0.0000
     6 N6      36.0832  23.1215 -11.5446   N.am      1 RES1   0.0000
     7 C7      37.4500  22.5993 -11.5381   C.3       1 RES1   0.0000
     8 C8      38.2593  23.3270 -10.4594   C.3       1 RES1   0.0000
     9 C9      38.3270  24.8600 -10.5696   C.3       1 RES1   0.0000
    10 C10     37.3966  21.0764 -11.3648   C.3       1 RES1   0.0000
    11 C11     36.7235  20.3575 -12.5086   C.ar      1 RES1   0.0000
    12 C12     38.9703  25.4491  -9.3164   C.3       1 RES1   0.0000
    13 C13     39.1467  25.3265 -11.7526   C.2       1 RES1   0.0000
    14 C14     35.5507  23.7365 -12.6029   C.2       1 RES1   0.0000
    15 C15     35.3606  20.1167 -12.4980   C.ar      1 RES1   0.0000
    16 C16     37.4472  19.9277 -13.6073   C.ar      1 RES1   0.0000
    17 C17     34.1280  24.2119 -12.4351   C.3       1 RES1   0.0000
    18 C18     35.4579  19.0215 -14.6616   C.ar      1 RES1   0.0000
    19 C19     34.7418  19.4627 -13.5484   C.ar      1 RES1   0.0000
    20 C20     36.8299  19.2749 -14.6593   C.ar      1 RES1   0.0000
    21 C21     33.9738  25.6937 -12.7280   C.3       1 RES1   0.0000
    22 C22     34.7913  18.3157 -15.7952   C.ar      1 RES1   0.0000
    23 C23     39.1541  26.7554 -13.6482   C.3       1 RES1   0.0000
    24 C24     35.5127  17.8765 -16.9065   C.ar      1 RES1   0.0000
    25 C25     33.4183  18.0649 -15.7923   C.ar      1 RES1   0.0000
    26 C26     32.5660  26.1896 -12.5675   C.2       1 RES1   0.0000
    27 C27     38.2410  27.7202 -14.3082   C.3       1 RES1   0.0000
    28 C28     34.8927  17.2215 -17.9577   C.ar      1 RES1   0.0000
    29 C29     32.8011  17.4096 -16.8449   C.ar      1 RES1   0.0000
    30 C30     33.5365  16.9868 -17.9291   C.ar      1 RES1   0.0000
    31 H31     37.9009  22.8156 -12.5055   H         1 RES1   0.0000
    32 H32     37.7961  23.0902  -9.5027   H         1 RES1   0.0000
    33 H33     39.2728  22.9291 -10.4370   H         1 RES1   0.0000
    34 H34     37.3147  25.2529 -10.6517   H         1 RES1   0.0000
    35 H35     38.4117  20.6952 -11.2644   H         1 RES1   0.0000
    36 H36     36.8617  20.8461 -10.4446   H         1 RES1   0.0000
    37 H37     35.5260  23.0366 -10.7004   H         1 RES1   0.0000
    38 H38     39.9900  25.0855  -9.1986   H         1 RES1   0.0000
    39 H39     38.4066  25.1724  -8.4267   H         1 RES1   0.0000
    40 H40     39.0021  26.5361  -9.3735   H         1 RES1   0.0000
    41 H41     34.7652  20.4475 -11.6483   H         1 RES1   0.0000
    42 H42     38.5208  20.1064 -13.6442   H         1 RES1   0.0000
    43 H43     33.8037  24.0136 -11.4146   H         1 RES1   0.0000
    44 H44     33.4815  23.6459 -13.1041   H         1 RES1   0.0000
    45 H45     33.6673  19.2958 -13.4889   H         1 RES1   0.0000
    46 H46     37.4453  18.9575 -15.4999   H         1 RES1   0.0000
    47 H47     34.3014  25.8880 -13.7482   H         1 RES1   0.0000
    48 H48     34.6236  26.2556 -12.0587   H         1 RES1   0.0000
    49 H49     40.0776  27.2515 -13.3534   H         1 RES1   0.0000
    50 H50     39.4145  25.9520 -14.3357   H         1 RES1   0.0000
    51 H51     36.5872  18.0440 -16.9640   H         1 RES1   0.0000
    52 H52     32.8042  18.3849 -14.9518   H         1 RES1   0.0000
    53 H53     37.3186  27.2301 -14.6161   H         1 RES1   0.0000
    54 H54     37.9836  28.5333 -13.6310   H         1 RES1   0.0000
    55 H55     38.7081  28.1505 -15.1929   H         1 RES1   0.0000
    56 H56     35.4815  16.8903 -18.8118   H         1 RES1   0.0000
    57 H57     31.7278  17.2278 -16.8148   H         1 RES1   0.0000
    58 H58     33.0502  16.4717 -18.7562   H         1 RES1   0.0000
    59 H59     31.4976  27.7676 -12.7071   H         1 RES1   0.0000
@<TRIPOS>BOND
     1     1    13    1
     2     1    23    1
     3     2    13    2
     4     3    14    2
     5     4    26    1
     6     4    59    1
     7     5    26    2
     8     6     7    1
     9     6    14   am
    10     6    37    1
    11     7     8    1
    12     7    10    1
    13     7    31    1
    14     8     9    1
    15     8    32    1
    16     8    33    1
    17     9    12    1
    18     9    13    1
    19     9    34    1
    20    10    11    1
    21    10    35    1
    22    10    36    1
    23    11    15   ar
    24    11    16   ar
    25    12    38    1
    26    12    39    1
    27    12    40    1
    28    14    17    1
    29    15    19   ar
    30    15    41    1
    31    16    20   ar
    32    16    42    1
    33    17    21    1
    34    17    43    1
    35    17    44    1
    36    18    19   ar
    37    18    20   ar
    38    18    22    1
    39    19    45    1
    40    20    46    1
    41    21    26    1
    42    21    47    1
    43    21    48    1
    44    22    24   ar
    45    22    25   ar
    46    23    27    1
    47    23    49    1
    48    23    50    1
    49    24    28   ar
    50    24    51    1
    51    25    29   ar
    52    25    52    1
    53    27    53    1
    54    27    54    1
    55    27    55    1
    56    28    30   ar
    57    28    56    1
    58    29    30   ar
    59    29    57    1
    60    30    58    1
@<TRIPOS>SUBSTRUCTURE
     1 RES1        1 GROUP             0 ****  ****    0  
