@<TRIPOS>MOLECULE
drug-sacubitril_mmff94_00001
    59    60     1     0     0
SMALL
NO_CHARGES
****
Generated from the CSD

@<TRIPOS>ATOM
     1 O1      38.9138  26.2664 -12.4515   O.3       1 RES1   0.0000
     2 O2      40.6343  24.8833 -12.1127   O.2       1 RES1   0.0000
     3 O3      36.0576  23.4423 -13.6186   O.2       1 RES1   0.0000
     4 O4      31.5714  25.5077 -14.3488   O.3       1 RES1   0.0000
     5 O5      31.7725  25.4522 -12.1378   O.2       1 RES1   0.0000
     6 N6      36.3747  23.3332 -11.3947   N.am      1 RES1   0.0000
     7 C7      37.6999  22.7181 -11.4756   C.3       1 RES1   0.0000
     8 C8      38.6218  23.3766 -10.4438   C.3       1 RES1   0.0000
     9 C9      38.7890  24.9025 -10.5479   C.3       1 RES1   0.0000
    10 C10     37.5516  21.2007 -11.3093   C.3       1 RES1   0.0000
    11 C11     36.7619  20.5423 -12.4143   C.ar      1 RES1   0.0000
    12 C12     39.5466  25.4323  -9.3328   C.3       1 RES1   0.0000
    13 C13     39.5656  25.3241 -11.7760   C.2       1 RES1   0.0000
    14 C14     35.6576  23.6470 -12.4759   C.2       1 RES1   0.0000
    15 C15     35.3887  20.3958 -12.3216   C.ar      1 RES1   0.0000
    16 C16     37.3858  20.0755 -13.5581   C.ar      1 RES1   0.0000
    17 C17     34.3116  24.2750 -12.2078   C.3       1 RES1   0.0000
    18 C18     35.2780  19.3199 -14.4942   C.ar      1 RES1   0.0000
    19 C19     34.6633  19.7973 -13.3363   C.ar      1 RES1   0.0000
    20 C20     36.6619  19.4782 -14.5745   C.ar      1 RES1   0.0000
    21 C21     33.5595  24.6016 -13.4856   C.3       1 RES1   0.0000
    22 C22     34.4964  18.6739 -15.5894   C.ar      1 RES1   0.0000
    23 C23     39.5569  26.7695 -13.6590   C.3       1 RES1   0.0000
    24 C24     35.1166  18.1981 -16.7456   C.ar      1 RES1   0.0000
    25 C25     33.1120  18.5183 -15.5037   C.ar      1 RES1   0.0000
    26 C26     32.2167  25.2276 -13.2434   C.2       1 RES1   0.0000
    27 C27     38.6745  27.8019 -14.2554   C.3       1 RES1   0.0000
    28 C28     34.3899  17.5988 -17.7611   C.ar      1 RES1   0.0000
    29 C29     32.3880  17.9185 -16.5208   C.ar      1 RES1   0.0000
    30 C30     33.0250  17.4577 -17.6509   C.ar      1 RES1   0.0000
    31 H31     38.1051  22.9133 -12.4674   H         1 RES1   0.0000
    32 H32     38.2024  23.1621  -9.4620   H         1 RES1   0.0000
    33 H33     39.6047  22.9097 -10.4863   H         1 RES1   0.0000
    34 H34     37.8032  25.3649 -10.5651   H         1 RES1   0.0000
    35 H35     38.5421  20.7495 -11.2739   H         1 RES1   0.0000
    36 H36     37.0589  20.9979 -10.3596   H         1 RES1   0.0000
    37 H37     35.9966  23.5553 -10.4793   H         1 RES1   0.0000
    38 H38     40.5439  24.9981  -9.2802   H         1 RES1   0.0000
    39 H39     39.0201  25.1856  -8.4120   H         1 RES1   0.0000
    40 H40     39.6503  26.5151  -9.3845   H         1 RES1   0.0000
    41 H41     34.8705  20.7576 -11.4348   H         1 RES1   0.0000
    42 H42     38.4650  20.1802 -13.6598   H         1 RES1   0.0000
    43 H43     34.4526  25.1887 -11.6324   H         1 RES1   0.0000
    44 H44     33.7135  23.5930 -11.6052   H         1 RES1   0.0000
    45 H45     33.5854  19.7042 -13.2120   H         1 RES1   0.0000
    46 H46     37.2016  19.1282 -15.4533   H         1 RES1   0.0000
    47 H47     33.4229  23.6858 -14.0589   H         1 RES1   0.0000
    48 H48     34.1620  25.2816 -14.0860   H         1 RES1   0.0000
    49 H49     40.5288  27.1976 -13.4183   H         1 RES1   0.0000
    50 H50     39.7186  25.9575 -14.3664   H         1 RES1   0.0000
    51 H51     36.1946  18.2919 -16.8680   H         1 RES1   0.0000
    52 H52     32.5738  18.8708 -14.6251   H         1 RES1   0.0000
    53 H53     37.7032  27.3799 -14.5093   H         1 RES1   0.0000
    54 H54     38.5158  28.6235 -13.5584   H         1 RES1   0.0000
    55 H55     39.1157  28.2086 -15.1642   H         1 RES1   0.0000
    56 H56     34.9013  17.2371 -18.6519   H         1 RES1   0.0000
    57 H57     31.3085  17.8108 -16.4260   H         1 RES1   0.0000
    58 H58     32.4546  16.9863 -18.4499   H         1 RES1   0.0000
    59 H59     30.6884  25.9199 -14.1577   H         1 RES1   0.0000
@<TRIPOS>BOND
     1     1    13    1
     2     1    23    1
     3     2    13    2
     4     3    14    2
     5     4    26    1
     6     4    59    1
     7     5    26    2
     8     6     7    1
     9     6    14   am
    10     6    37    1
    11     7     8    1
    12     7    10    1
    13     7    31    1
    14     8     9    1
    15     8    32    1
    16     8    33    1
    17     9    12    1
    18     9    13    1
    19     9    34    1
    20    10    11    1
    21    10    35    1
    22    10    36    1
    23    11    15   ar
    24    11    16   ar
    25    12    38    1
    26    12    39    1
    27    12    40    1
    28    14    17    1
    29    15    19   ar
    30    15    41    1
    31    16    20   ar
    32    16    42    1
    33    17    21    1
    34    17    43    1
    35    17    44    1
    36    18    19   ar
    37    18    20   ar
    38    18    22    1
    39    19    45    1
    40    20    46    1
    41    21    26    1
    42    21    47    1
    43    21    48    1
    44    22    24   ar
    45    22    25   ar
    46    23    27    1
    47    23    49    1
    48    23    50    1
    49    24    28   ar
    50    24    51    1
    51    25    29   ar
    52    25    52    1
    53    27    53    1
    54    27    54    1
    55    27    55    1
    56    28    30   ar
    57    28    56    1
    58    29    30   ar
    59    29    57    1
    60    30    58    1
@<TRIPOS>SUBSTRUCTURE
     1 RES1        1 GROUP             0 ****  ****    0  
