@<TRIPOS>MOLECULE
drug-sacubitril_mmff94_00007
    59    60     1     0     0
SMALL
NO_CHARGES
****
Generated from the CSD

@<TRIPOS>ATOM
     1 O1      40.4976  25.8877 -10.9364   O.3       1 RES1   0.0000
     2 O2      40.3157  27.4572 -12.5148   O.2       1 RES1   0.0000
     3 O3      35.1994  23.5684 -13.9749   O.2       1 RES1   0.0000
     4 O4      30.6366  24.1744 -12.0410   O.3       1 RES1   0.0000
     5 O5      31.9568  24.0810 -10.2576   O.2       1 RES1   0.0000
     6 N6      36.6344  23.4594 -12.2466   N.am      1 RES1   0.0000
     7 C7      37.8304  23.2900 -13.0724   C.3       1 RES1   0.0000
     8 C8      38.9602  24.1534 -12.5012   C.3       1 RES1   0.0000
     9 C9      38.6921  25.6660 -12.4165   C.3       1 RES1   0.0000
    10 C10     38.1631  21.7954 -13.1599   C.3       1 RES1   0.0000
    11 C11     37.1041  20.9766 -13.8571   C.ar      1 RES1   0.0000
    12 C12     37.5917  25.9483 -11.3964   C.3       1 RES1   0.0000
    13 C13     39.9105  26.4535 -11.9872   C.2       1 RES1   0.0000
    14 C14     35.4111  23.5856 -12.7655   C.2       1 RES1   0.0000
    15 C15     36.0599  20.4073 -13.1492   C.ar      1 RES1   0.0000
    16 C16     37.1393  20.7799 -15.2267   C.ar      1 RES1   0.0000
    17 C17     34.2917  23.7527 -11.7670   C.3       1 RES1   0.0000
    18 C18     35.1087  19.4521 -15.1673   C.ar      1 RES1   0.0000
    19 C19     35.0857  19.6611 -13.7880   C.ar      1 RES1   0.0000
    20 C20     36.1652  20.0353 -15.8675   C.ar      1 RES1   0.0000
    21 C21     32.9350  23.8894 -12.4348   C.3       1 RES1   0.0000
    22 C22     34.0583  18.6471 -15.8574   C.ar      1 RES1   0.0000
    23 C23     41.6930  26.5444 -10.4221   C.3       1 RES1   0.0000
    24 C24     34.0863  18.4411 -17.2376   C.ar      1 RES1   0.0000
    25 C25     33.0034  18.0661 -15.1519   C.ar      1 RES1   0.0000
    26 C26     31.8053  24.0568 -11.4604   C.2       1 RES1   0.0000
    27 C27     42.1865  25.7616  -9.2628   C.3       1 RES1   0.0000
    28 C28     33.1108  17.6938 -17.8766   C.ar      1 RES1   0.0000
    29 C29     32.0295  17.3192 -15.7937   C.ar      1 RES1   0.0000
    30 C30     32.0811  17.1316 -17.1565   C.ar      1 RES1   0.0000
    31 H31     37.6037  23.6470 -14.0759   H         1 RES1   0.0000
    32 H32     39.1478  23.7996 -11.4885   H         1 RES1   0.0000
    33 H33     39.8694  23.9873 -13.0772   H         1 RES1   0.0000
    34 H34     38.3555  26.0197 -13.3899   H         1 RES1   0.0000
    35 H35     39.1043  21.6725 -13.6936   H         1 RES1   0.0000
    36 H36     38.2982  21.4060 -12.1519   H         1 RES1   0.0000
    37 H37     36.7426  23.5101 -11.2387   H         1 RES1   0.0000
    38 H38     37.6379  25.2382 -10.5721   H         1 RES1   0.0000
    39 H39     36.6083  25.8692 -11.8575   H         1 RES1   0.0000
    40 H40     37.6941  26.9517 -10.9858   H         1 RES1   0.0000
    41 H41     36.0043  20.5491 -12.0709   H         1 RES1   0.0000
    42 H42     37.9476  21.2187 -15.8098   H         1 RES1   0.0000
    43 H43     34.4829  24.6373 -11.1613   H         1 RES1   0.0000
    44 H44     34.2769  22.8917 -11.1004   H         1 RES1   0.0000
    45 H45     34.2873  19.2327 -13.1839   H         1 RES1   0.0000
    46 H46     36.2397  19.9111 -16.9468   H         1 RES1   0.0000
    47 H47     32.7490  23.0041 -13.0411   H         1 RES1   0.0000
    48 H48     32.9550  24.7498 -13.1020   H         1 RES1   0.0000
    49 H49     42.4578  26.5951 -11.1957   H         1 RES1   0.0000
    50 H50     41.4617  27.5640 -10.1175   H         1 RES1   0.0000
    51 H51     34.8857  18.8701 -17.8400   H         1 RES1   0.0000
    52 H52     32.9294  18.1933 -14.0729   H         1 RES1   0.0000
    53 H53     41.4316  25.7146  -8.4793   H         1 RES1   0.0000
    54 H54     42.4304  24.7429  -9.5605   H         1 RES1   0.0000
    55 H55     43.0827  26.2163  -8.8433   H         1 RES1   0.0000
    56 H56     33.1588  17.5502 -18.9550   H         1 RES1   0.0000
    57 H57     31.2181  16.8778 -15.2169   H         1 RES1   0.0000
    58 H58     31.3148  16.5441 -17.6601   H         1 RES1   0.0000
    59 H59     29.9101  24.2836 -11.3729   H         1 RES1   0.0000
@<TRIPOS>BOND
     1     1    13    1
     2     1    23    1
     3     2    13    2
     4     3    14    2
     5     4    26    1
     6     4    59    1
     7     5    26    2
     8     6     7    1
     9     6    14   am
    10     6    37    1
    11     7     8    1
    12     7    10    1
    13     7    31    1
    14     8     9    1
    15     8    32    1
    16     8    33    1
    17     9    12    1
    18     9    13    1
    19     9    34    1
    20    10    11    1
    21    10    35    1
    22    10    36    1
    23    11    15   ar
    24    11    16   ar
    25    12    38    1
    26    12    39    1
    27    12    40    1
    28    14    17    1
    29    15    19   ar
    30    15    41    1
    31    16    20   ar
    32    16    42    1
    33    17    21    1
    34    17    43    1
    35    17    44    1
    36    18    19   ar
    37    18    20   ar
    38    18    22    1
    39    19    45    1
    40    20    46    1
    41    21    26    1
    42    21    47    1
    43    21    48    1
    44    22    24   ar
    45    22    25   ar
    46    23    27    1
    47    23    49    1
    48    23    50    1
    49    24    28   ar
    50    24    51    1
    51    25    29   ar
    52    25    52    1
    53    27    53    1
    54    27    54    1
    55    27    55    1
    56    28    30   ar
    57    28    56    1
    58    29    30   ar
    59    29    57    1
    60    30    58    1
@<TRIPOS>SUBSTRUCTURE
     1 RES1        1 GROUP             0 ****  ****    0  
