@<TRIPOS>MOLECULE
drug-sacubitril_mmff94_00009
    59    60     1     0     0
SMALL
NO_CHARGES
****
Generated from the CSD

@<TRIPOS>ATOM
     1 O1      38.9939  25.3228 -12.8084   O.3       1 RES1   0.0000
     2 O2      40.6959  26.0393 -11.5522   O.2       1 RES1   0.0000
     3 O3      36.2072  23.6973 -13.7293   O.2       1 RES1   0.0000
     4 O4      30.9925  23.9564 -13.8645   O.3       1 RES1   0.0000
     5 O5      31.7391  25.6579 -12.6481   O.2       1 RES1   0.0000
     6 N6      36.2929  23.7376 -11.4823   N.am      1 RES1   0.0000
     7 C7      37.5907  23.0691 -11.3829   C.3       1 RES1   0.0000
     8 C8      38.4317  23.7651 -10.3076   C.3       1 RES1   0.0000
     9 C9      38.6619  25.2756 -10.4874   C.3       1 RES1   0.0000
    10 C10     37.3588  21.5742 -11.1309   C.3       1 RES1   0.0000
    11 C11     36.6566  20.8681 -12.2651   C.ar      1 RES1   0.0000
    12 C12     39.3014  25.8630  -9.2314   C.3       1 RES1   0.0000
    13 C13     39.5810  25.5941 -11.6462   C.2       1 RES1   0.0000
    14 C14     35.7034  23.9990 -12.6510   C.2       1 RES1   0.0000
    15 C15     35.2760  20.7801 -12.3064   C.ar      1 RES1   0.0000
    16 C16     37.3718  20.2975 -13.3036   C.ar      1 RES1   0.0000
    17 C17     34.3666  24.6949 -12.5676   C.3       1 RES1   0.0000
    18 C18     35.3381  19.5559 -14.4010   C.ar      1 RES1   0.0000
    19 C19     34.6311  20.1379 -13.3484   C.ar      1 RES1   0.0000
    20 C20     36.7286  19.6562 -14.3472   C.ar      1 RES1   0.0000
    21 C21     33.2728  23.9386 -13.3003   C.3       1 RES1   0.0000
    22 C22     34.6434  18.8627 -15.5255   C.ar      1 RES1   0.0000
    23 C23     39.7706  25.5908 -14.0124   C.3       1 RES1   0.0000
    24 C24     35.3558  18.2822 -16.5760   C.ar      1 RES1   0.0000
    25 C25     33.2519  18.7656 -15.5743   C.ar      1 RES1   0.0000
    26 C26     31.9332  24.6124 -13.2309   C.2       1 RES1   0.0000
    27 C27     38.9423  25.2235 -15.1868   C.3       1 RES1   0.0000
    28 C28     34.7097  17.6392 -17.6189   C.ar      1 RES1   0.0000
    29 C29     32.6087  18.1218 -16.6184   C.ar      1 RES1   0.0000
    30 C30     33.3357  17.5576 -17.6422   C.ar      1 RES1   0.0000
    31 H31     38.1026  23.1773 -12.3380   H         1 RES1   0.0000
    32 H32     37.9124  23.6262  -9.3605   H         1 RES1   0.0000
    33 H33     39.3970  23.2679 -10.2248   H         1 RES1   0.0000
    34 H34     37.7004  25.7630 -10.6419   H         1 RES1   0.0000
    35 H35     38.3195  21.0900 -10.9622   H         1 RES1   0.0000
    36 H36     36.7639  21.4587 -10.2261   H         1 RES1   0.0000
    37 H37     35.8344  24.0391 -10.6284   H         1 RES1   0.0000
    38 H38     40.2715  25.4058  -9.0423   H         1 RES1   0.0000
    39 H39     38.6701  25.6918  -8.3607   H         1 RES1   0.0000
    40 H40     39.4475  26.9368  -9.3387   H         1 RES1   0.0000
    41 H41     34.6872  21.2237 -11.5049   H         1 RES1   0.0000
    42 H42     38.4593  20.3542 -13.2992   H         1 RES1   0.0000
    43 H43     34.4571  25.6935 -12.9924   H         1 RES1   0.0000
    44 H44     34.0862  24.8043 -11.5210   H         1 RES1   0.0000
    45 H45     33.5431  20.0943 -13.3310   H         1 RES1   0.0000
    46 H46     37.3385  19.2243 -15.1393   H         1 RES1   0.0000
    47 H47     33.1874  22.9401 -12.8740   H         1 RES1   0.0000
    48 H48     33.5584  23.8294 -14.3455   H         1 RES1   0.0000
    49 H49     40.0437  26.6440 -14.0584   H         1 RES1   0.0000
    50 H50     40.6917  25.0099 -14.0042   H         1 RES1   0.0000
    51 H51     36.4438  18.3265 -16.5914   H         1 RES1   0.0000
    52 H52     32.6437  19.2001 -14.7823   H         1 RES1   0.0000
    53 H53     38.6732  24.1688 -15.1546   H         1 RES1   0.0000
    54 H54     38.0234  25.8076 -15.2089   H         1 RES1   0.0000
    55 H55     39.4836  25.4074 -16.1137   H         1 RES1   0.0000
    56 H56     35.2921  17.1956 -18.4251   H         1 RES1   0.0000
    57 H57     31.5214  18.0616 -16.6295   H         1 RES1   0.0000
    58 H58     32.8289  17.0517 -18.4626   H         1 RES1   0.0000
    59 H59     30.1193  24.4250 -13.8015   H         1 RES1   0.0000
@<TRIPOS>BOND
     1     1    13    1
     2     1    23    1
     3     2    13    2
     4     3    14    2
     5     4    26    1
     6     4    59    1
     7     5    26    2
     8     6     7    1
     9     6    14   am
    10     6    37    1
    11     7     8    1
    12     7    10    1
    13     7    31    1
    14     8     9    1
    15     8    32    1
    16     8    33    1
    17     9    12    1
    18     9    13    1
    19     9    34    1
    20    10    11    1
    21    10    35    1
    22    10    36    1
    23    11    15   ar
    24    11    16   ar
    25    12    38    1
    26    12    39    1
    27    12    40    1
    28    14    17    1
    29    15    19   ar
    30    15    41    1
    31    16    20   ar
    32    16    42    1
    33    17    21    1
    34    17    43    1
    35    17    44    1
    36    18    19   ar
    37    18    20   ar
    38    18    22    1
    39    19    45    1
    40    20    46    1
    41    21    26    1
    42    21    47    1
    43    21    48    1
    44    22    24   ar
    45    22    25   ar
    46    23    27    1
    47    23    49    1
    48    23    50    1
    49    24    28   ar
    50    24    51    1
    51    25    29   ar
    52    25    52    1
    53    27    53    1
    54    27    54    1
    55    27    55    1
    56    28    30   ar
    57    28    56    1
    58    29    30   ar
    59    29    57    1
    60    30    58    1
@<TRIPOS>SUBSTRUCTURE
     1 RES1        1 GROUP             0 ****  ****    0  
