@<TRIPOS>MOLECULE
theophylline
    21    22     1     0     0
SMALL
NO_CHARGES
****
Generated from the CSD

@<TRIPOS>ATOM
     1 N1      -3.4076  -0.2572  -0.3162   N.pl3     1 RES1   0.0000
     2 C2      -3.6740   0.9772  -0.4189   C.2       1 RES1   0.0000
     3 N3      -2.6369   1.6941  -0.3078   N.2       1 RES1   0.0000
     4 C4      -1.6745   0.8885  -0.1275   C.2       1 RES1   0.0000
     5 N5      -0.3579   1.1179   0.0485   N.am      1 RES1   0.0000
     6 C6       0.1897   2.4730   0.0527   C.3       1 RES1   0.0000
     7 C7       0.4990   0.0521   0.2147   C.2       1 RES1   0.0000
     8 O8       1.6880   0.2271   0.3567   O.2       1 RES1   0.0000
     9 N9      -0.0512  -1.2261   0.2141   N.am      1 RES1   0.0000
    10 C10      0.8283  -2.3827   0.4003   C.3       1 RES1   0.0000
    11 C11     -1.4030  -1.4727   0.0351   C.2       1 RES1   0.0000
    12 O12     -1.8738  -2.5886   0.0267   O.2       1 RES1   0.0000
    13 C13     -2.1596  -0.3628  -0.1318   C.2       1 RES1   0.0000
    14 H14     -4.0682  -1.0259  -0.3709   H         1 RES1   0.0000
    15 H15     -4.6889   1.3361  -0.5838   H         1 RES1   0.0000
    16 H16     -0.5878   3.2341   0.0058   H         1 RES1   0.0000
    17 H17      0.8427   2.6169  -0.8068   H         1 RES1   0.0000
    18 H18      0.7565   2.6532   0.9650   H         1 RES1   0.0000
    19 H19      1.8688  -2.1158   0.5796   H         1 RES1   0.0000
    20 H20      0.5023  -2.9689   1.2582   H         1 RES1   0.0000
    21 H21      0.8086  -3.0148  -0.4863   H         1 RES1   0.0000
@<TRIPOS>BOND
     1     2     1    1
     2     1    13    1
     3     1    14    1
     4     3     2    2
     5     2    15    1
     6     4     3    1
     7     5     4    1
     8     4    13    2
     9     5     6    1
    10     7     5   am
    11     6    16    1
    12     6    17    1
    13     6    18    1
    14     7     8    2
    15     9     7   am
    16     9    10    1
    17     9    11   am
    18    10    19    1
    19    10    20    1
    20    10    21    1
    21    11    12    2
    22    13    11    1
@<TRIPOS>SUBSTRUCTURE
     1 RES1        1 GROUP             0 ****  ****    0  
