@<TRIPOS>MOLECULE
drug-sacubitril_mmff94_00001
    59    60     1     0     0
SMALL
NO_CHARGES
****
Generated from the CSD

@<TRIPOS>ATOM
     1 O1      38.9138  26.2664 -12.4515   O.3       1 RES1   0.0000
     2 O2      40.6343  24.8833 -12.1127   O.2       1 RES1   0.0000
     3 O3      36.0576  23.4423 -13.6186   O.2       1 RES1   0.0000
     4 O4      31.5714  25.5077 -14.3488   O.3       1 RES1   0.0000
     5 O5      31.7725  25.4522 -12.1378   O.2       1 RES1   0.0000
     6 N6      36.3747  23.3332 -11.3947   N.am      1 RES1   0.0000
     7 C7      37.6999  22.7181 -11.4756   C.3       1 RES1   0.0000
     8 C8      38.6218  23.3766 -10.4438   C.3       1 RES1   0.0000
     9 C9      38.7890  24.9025 -10.5479   C.3       1 RES1   0.0000
    10 C10     37.5516  21.2007 -11.3093   C.3       1 RES1   0.0000
    11 C11     36.7619  20.5423 -12.4143   C.ar      1 RES1   0.0000
    12 C12     39.5466  25.4323  -9.3328   C.3       1 RES1   0.0000
    13 C13     39.5656  25.3241 -11.7760   C.2       1 RES1   0.0000
    14 C14     35.6576  23.6470 -12.4759   C.2       1 RES1   0.0000
    15 C15     35.3887  20.3958 -12.3216   C.ar      1 RES1   0.0000
    16 C16     37.3858  20.0755 -13.5581   C.ar      1 RES1   0.0000
    17 C17     34.3116  24.2750 -12.2078   C.3       1 RES1   0.0000
    18 C18     35.2780  19.3199 -14.4942   C.ar      1 RES1   0.0000
    19 C19     34.6633  19.7973 -13.3363   C.ar      1 RES1   0.0000
    20 C20     36.6619  19.4782 -14.5745   C.ar      1 RES1   0.0000
    21 C21     33.5595  24.6016 -13.4856   C.3       1 RES1   0.0000
    22 C22     34.4964  18.6739 -15.5894   C.ar      1 RES1   0.0000
    23 C23     39.5569  26.7695 -13.6590   C.3       1 RES1   0.0000
    24 C24     35.1166  18.1981 -16.7456   C.ar      1 RES1   0.0000
    25 C25     33.1120  18.5183 -15.5037   C.ar      1 RES1   0.0000
    26 C26     32.2167  25.2276 -13.2434   C.2       1 RES1   0.0000
    27 C27     38.6745  27.8019 -14.2554   C.3       1 RES1   0.0000
    28 C28     34.3899  17.5988 -17.7611   C.ar      1 RES1   0.0000
    29 C29     32.3880  17.9185 -16.5208   C.ar      1 RES1   0.0000
    30 C30     33.0250  17.4577 -17.6509   C.ar      1 RES1   0.0000
    31 H31     38.1096  22.9154 -12.4783   H         1 RES1   0.0000
    32 H32     38.1993  23.1605  -9.4548   H         1 RES1   0.0000
    33 H33     39.6119  22.9063 -10.4866   H         1 RES1   0.0000
    34 H34     37.7923  25.3700 -10.5653   H         1 RES1   0.0000
    35 H35     38.5490  20.7463 -11.2737   H         1 RES1   0.0000
    36 H36     37.0552  20.9964 -10.3525   H         1 RES1   0.0000
    37 H37     35.9947  23.5564 -10.4748   H         1 RES1   0.0000
    38 H38     40.5430  24.9985  -9.2802   H         1 RES1   0.0000
    39 H39     39.0206  25.1858  -8.4128   H         1 RES1   0.0000
    40 H40     39.6502  26.5141  -9.3845   H         1 RES1   0.0000
    41 H41     34.8724  20.7563 -11.4381   H         1 RES1   0.0000
    42 H42     38.4610  20.1798 -13.6594   H         1 RES1   0.0000
    43 H43     34.4536  25.1955 -11.6281   H         1 RES1   0.0000
    44 H44     33.7091  23.5880 -11.6008   H         1 RES1   0.0000
    45 H45     33.5912  19.7047 -13.2127   H         1 RES1   0.0000
    46 H46     37.1987  19.1301 -15.4486   H         1 RES1   0.0000
    47 H47     33.4219  23.6791 -14.0631   H         1 RES1   0.0000
    48 H48     34.1664  25.2866 -14.0904   H         1 RES1   0.0000
    49 H49     40.5360  27.2008 -13.4165   H         1 RES1   0.0000
    50 H50     39.7198  25.9515 -14.3716   H         1 RES1   0.0000
    51 H51     36.1889  18.2914 -16.8673   H         1 RES1   0.0000
    52 H52     32.5767  18.8689 -14.6298   H         1 RES1   0.0000
    53 H53     37.7042  27.3803 -14.5090   H         1 RES1   0.0000
    54 H54     38.5159  28.6227 -13.5591   H         1 RES1   0.0000
    55 H55     39.1153  28.2082 -15.1634   H         1 RES1   0.0000
    56 H56     34.8994  17.2384 -18.6486   H         1 RES1   0.0000
    57 H57     31.3124  17.8112 -16.4263   H         1 RES1   0.0000
    58 H58     32.4568  16.9881 -18.4469   H         1 RES1   0.0000
    59 H59     30.6662  25.9303 -14.1529   H         1 RES1   0.0000
@<TRIPOS>BOND
     1     1    13    1
     2     1    23    1
     3     2    13    2
     4     3    14    2
     5     4    26    1
     6     4    59    1
     7     5    26    2
     8     6     7    1
     9     6    14   am
    10     6    37    1
    11     7     8    1
    12     7    10    1
    13     7    31    1
    14     8     9    1
    15     8    32    1
    16     8    33    1
    17     9    12    1
    18     9    13    1
    19     9    34    1
    20    10    11    1
    21    10    35    1
    22    10    36    1
    23    11    15   ar
    24    11    16   ar
    25    12    38    1
    26    12    39    1
    27    12    40    1
    28    14    17    1
    29    15    19   ar
    30    15    41    1
    31    16    20   ar
    32    16    42    1
    33    17    21    1
    34    17    43    1
    35    17    44    1
    36    18    19   ar
    37    18    20   ar
    38    18    22    1
    39    19    45    1
    40    20    46    1
    41    21    26    1
    42    21    47    1
    43    21    48    1
    44    22    24   ar
    45    22    25   ar
    46    23    27    1
    47    23    49    1
    48    23    50    1
    49    24    28   ar
    50    24    51    1
    51    25    29   ar
    52    25    52    1
    53    27    53    1
    54    27    54    1
    55    27    55    1
    56    28    30   ar
    57    28    56    1
    58    29    30   ar
    59    29    57    1
    60    30    58    1
@<TRIPOS>SUBSTRUCTURE
     1 RES1        1 GROUP             0 ****  ****    0  
@<TRIPOS>MOLECULE
drug-sacubitril_mmff94_00002
    59    60     1     0     0
SMALL
NO_CHARGES
****
Generated from the CSD

@<TRIPOS>ATOM
     1 O1      40.5988  26.7219 -11.9362   O.3       1 RES1   0.0000
     2 O2      40.5351  25.5181 -10.0561   O.2       1 RES1   0.0000
     3 O3      35.4688  23.4456 -13.9089   O.2       1 RES1   0.0000
     4 O4      30.7545  24.7374 -12.8926   O.3       1 RES1   0.0000
     5 O5      31.6971  24.5644 -10.8892   O.2       1 RES1   0.0000
     6 N6      36.5313  23.2395 -11.9374   N.am      1 RES1   0.0000
     7 C7      37.8244  22.8741 -12.5166   C.3       1 RES1   0.0000
     8 C8      38.9369  23.6114 -11.7636   C.3       1 RES1   0.0000
     9 C9      38.8680  25.1483 -11.7702   C.3       1 RES1   0.0000
    10 C10     37.9592  21.3465 -12.5008   C.3       1 RES1   0.0000
    11 C11     36.9450  20.6377 -13.3651   C.ar      1 RES1   0.0000
    12 C12     37.6475  25.6230 -10.9852   C.3       1 RES1   0.0000
    13 C13     40.0825  25.7918 -11.1378   C.2       1 RES1   0.0000
    14 C14     35.4539  23.4969 -12.6822   C.2       1 RES1   0.0000
    15 C15     35.7199  20.2458 -12.8539   C.ar      1 RES1   0.0000
    16 C16     37.2051  20.3684 -14.6975   C.ar      1 RES1   0.0000
    17 C17     34.2031  23.8588 -11.9190   C.3       1 RES1   0.0000
    18 C18     35.0358  19.3206 -14.9906   C.ar      1 RES1   0.0000
    19 C19     34.7874  19.6009 -13.6467   C.ar      1 RES1   0.0000
    20 C20     36.2732  19.7250 -15.4923   C.ar      1 RES1   0.0000
    21 C21     33.0248  24.1364 -12.8354   C.3       1 RES1   0.0000
    22 C22     34.0305  18.6247 -15.8467   C.ar      1 RES1   0.0000
    23 C23     41.7751  27.4279 -11.4434   C.3       1 RES1   0.0000
    24 C24     34.2843  18.3466 -17.1907   C.ar      1 RES1   0.0000
    25 C25     32.7939  18.2225 -15.3396   C.ar      1 RES1   0.0000
    26 C26     31.7685  24.4987 -12.0979   C.2       1 RES1   0.0000
    27 C27     42.1879  28.4114 -12.4741   C.3       1 RES1   0.0000
    28 C28     33.3505  17.7008 -17.9839   C.ar      1 RES1   0.0000
    29 C29     31.8621  17.5767 -16.1352   C.ar      1 RES1   0.0000
    30 C30     32.1382  17.3146 -17.4582   C.ar      1 RES1   0.0000
    31 H31     37.8382  23.2095 -13.5652   H         1 RES1   0.0000
    32 H32     38.8836  23.2860 -10.7174   H         1 RES1   0.0000
    33 H33     39.9124  23.2971 -12.1549   H         1 RES1   0.0000
    34 H34     38.7676  25.4964 -12.8099   H         1 RES1   0.0000
    35 H35     38.9640  21.0733 -12.8452   H         1 RES1   0.0000
    36 H36     37.8503  20.9922 -11.4683   H         1 RES1   0.0000
    37 H37     36.4570  23.3275 -10.9239   H         1 RES1   0.0000
    38 H38     37.4430  24.9565 -10.1499   H         1 RES1   0.0000
    39 H39     36.7655  25.6489 -11.6218   H         1 RES1   0.0000
    40 H40     37.8089  26.6234 -10.5889   H         1 RES1   0.0000
    41 H41     35.4870  20.4478 -11.8136   H         1 RES1   0.0000
    42 H42     38.1561  20.6670 -15.1261   H         1 RES1   0.0000
    43 H43     34.4002  24.7473 -11.3065   H         1 RES1   0.0000
    44 H44     33.9456  23.0362 -11.2404   H         1 RES1   0.0000
    45 H45     33.8452  19.3128 -13.1967   H         1 RES1   0.0000
    46 H46     36.5266  19.5383 -16.5288   H         1 RES1   0.0000
    47 H47     32.8328  23.2465 -13.4475   H         1 RES1   0.0000
    48 H48     33.2875  24.9577 -13.5136   H         1 RES1   0.0000
    49 H49     41.5438  27.9398 -10.5011   H         1 RES1   0.0000
    50 H50     42.5891  26.7191 -11.2472   H         1 RES1   0.0000
    51 H51     35.2273  18.6352 -17.6388   H         1 RES1   0.0000
    52 H52     32.5414  18.4121 -14.3035   H         1 RES1   0.0000
    53 H53     42.4295  27.9113 -13.4097   H         1 RES1   0.0000
    54 H54     41.3899  29.1252 -12.6677   H         1 RES1   0.0000
    55 H55     43.0664  28.9650 -12.1491   H         1 RES1   0.0000
    56 H56     33.5757  17.4979 -19.0257   H         1 RES1   0.0000
    57 H57     30.9089  17.2757 -15.7133   H         1 RES1   0.0000
    58 H58     31.4075  16.8086 -18.0804   H         1 RES1   0.0000
    59 H59     29.9185  24.9799 -12.3647   H         1 RES1   0.0000
@<TRIPOS>BOND
     1     1    13    1
     2     1    23    1
     3     2    13    2
     4     3    14    2
     5     4    26    1
     6     4    59    1
     7     5    26    2
     8     6     7    1
     9     6    14   am
    10     6    37    1
    11     7     8    1
    12     7    10    1
    13     7    31    1
    14     8     9    1
    15     8    32    1
    16     8    33    1
    17     9    12    1
    18     9    13    1
    19     9    34    1
    20    10    11    1
    21    10    35    1
    22    10    36    1
    23    11    15   ar
    24    11    16   ar
    25    12    38    1
    26    12    39    1
    27    12    40    1
    28    14    17    1
    29    15    19   ar
    30    15    41    1
    31    16    20   ar
    32    16    42    1
    33    17    21    1
    34    17    43    1
    35    17    44    1
    36    18    19   ar
    37    18    20   ar
    38    18    22    1
    39    19    45    1
    40    20    46    1
    41    21    26    1
    42    21    47    1
    43    21    48    1
    44    22    24   ar
    45    22    25   ar
    46    23    27    1
    47    23    49    1
    48    23    50    1
    49    24    28   ar
    50    24    51    1
    51    25    29   ar
    52    25    52    1
    53    27    53    1
    54    27    54    1
    55    27    55    1
    56    28    30   ar
    57    28    56    1
    58    29    30   ar
    59    29    57    1
    60    30    58    1
@<TRIPOS>SUBSTRUCTURE
     1 RES1        1 GROUP             0 ****  ****    0  
@<TRIPOS>MOLECULE
drug-sacubitril_mmff94_00003
    59    60     1     0     0
SMALL
NO_CHARGES
****
Generated from the CSD

@<TRIPOS>ATOM
     1 O1      38.4743  26.2168 -12.4766   O.3       1 RES1   0.0000
     2 O2      40.2619  24.9587 -12.0190   O.2       1 RES1   0.0000
     3 O3      36.1692  23.9093 -13.6494   O.2       1 RES1   0.0000
     4 O4      32.4376  27.4686 -12.8213   O.3       1 RES1   0.0000
     5 O5      31.6400  25.4801 -12.2366   O.2       1 RES1   0.0000
     6 N6      36.0832  23.1215 -11.5446   N.am      1 RES1   0.0000
     7 C7      37.4500  22.5993 -11.5381   C.3       1 RES1   0.0000
     8 C8      38.2593  23.3270 -10.4594   C.3       1 RES1   0.0000
     9 C9      38.3270  24.8600 -10.5696   C.3       1 RES1   0.0000
    10 C10     37.3966  21.0764 -11.3648   C.3       1 RES1   0.0000
    11 C11     36.7235  20.3575 -12.5086   C.ar      1 RES1   0.0000
    12 C12     38.9703  25.4491  -9.3164   C.3       1 RES1   0.0000
    13 C13     39.1467  25.3265 -11.7526   C.2       1 RES1   0.0000
    14 C14     35.5507  23.7365 -12.6029   C.2       1 RES1   0.0000
    15 C15     35.3606  20.1167 -12.4980   C.ar      1 RES1   0.0000
    16 C16     37.4472  19.9277 -13.6073   C.ar      1 RES1   0.0000
    17 C17     34.1280  24.2119 -12.4351   C.3       1 RES1   0.0000
    18 C18     35.4579  19.0215 -14.6616   C.ar      1 RES1   0.0000
    19 C19     34.7418  19.4627 -13.5484   C.ar      1 RES1   0.0000
    20 C20     36.8299  19.2749 -14.6593   C.ar      1 RES1   0.0000
    21 C21     33.9738  25.6937 -12.7280   C.3       1 RES1   0.0000
    22 C22     34.7913  18.3157 -15.7952   C.ar      1 RES1   0.0000
    23 C23     39.1541  26.7554 -13.6482   C.3       1 RES1   0.0000
    24 C24     35.5127  17.8765 -16.9065   C.ar      1 RES1   0.0000
    25 C25     33.4183  18.0649 -15.7923   C.ar      1 RES1   0.0000
    26 C26     32.5660  26.1896 -12.5675   C.2       1 RES1   0.0000
    27 C27     38.2410  27.7202 -14.3082   C.3       1 RES1   0.0000
    28 C28     34.8927  17.2215 -17.9577   C.ar      1 RES1   0.0000
    29 C29     32.8011  17.4096 -16.8449   C.ar      1 RES1   0.0000
    30 C30     33.5365  16.9868 -17.9291   C.ar      1 RES1   0.0000
    31 H31     37.9059  22.8180 -12.5161   H         1 RES1   0.0000
    32 H32     37.7927  23.0885  -9.4956   H         1 RES1   0.0000
    33 H33     39.2802  22.9262 -10.4368   H         1 RES1   0.0000
    34 H34     37.3035  25.2572 -10.6526   H         1 RES1   0.0000
    35 H35     38.4189  20.6925 -11.2637   H         1 RES1   0.0000
    36 H36     36.8577  20.8444 -10.4378   H         1 RES1   0.0000
    37 H37     35.5233  23.0362 -10.6963   H         1 RES1   0.0000
    38 H38     39.9891  25.0858  -9.1987   H         1 RES1   0.0000
    39 H39     38.4071  25.1727  -8.4275   H         1 RES1   0.0000
    40 H40     39.0021  26.5351  -9.3734   H         1 RES1   0.0000
    41 H41     34.7674  20.4463 -11.6515   H         1 RES1   0.0000
    42 H42     38.5168  20.1057 -13.6441   H         1 RES1   0.0000
    43 H43     33.8013  24.0121 -11.4071   H         1 RES1   0.0000
    44 H44     33.4768  23.6418 -13.1090   H         1 RES1   0.0000
    45 H45     33.6730  19.2967 -13.4892   H         1 RES1   0.0000
    46 H46     37.4420  18.9592 -15.4954   H         1 RES1   0.0000
    47 H47     34.3038  25.8894 -13.7558   H         1 RES1   0.0000
    48 H48     34.6284  26.2597 -12.0538   H         1 RES1   0.0000
    49 H49     40.0844  27.2552 -13.3512   H         1 RES1   0.0000
    50 H50     39.4164  25.9461 -14.3407   H         1 RES1   0.0000
    51 H51     36.5814  18.0431 -16.9637   H         1 RES1   0.0000
    52 H52     32.8075  18.3832 -14.9563   H         1 RES1   0.0000
    53 H53     37.3194  27.2305 -14.6158   H         1 RES1   0.0000
    54 H54     37.9838  28.5325 -13.6317   H         1 RES1   0.0000
    55 H55     38.7077  28.1501 -15.1921   H         1 RES1   0.0000
    56 H56     35.4793  16.8915 -18.8087   H         1 RES1   0.0000
    57 H57     31.7318  17.2285 -16.8149   H         1 RES1   0.0000
    58 H58     33.0520  16.4736 -18.7532   H         1 RES1   0.0000
    59 H59     31.4739  27.7751 -12.7042   H         1 RES1   0.0000
@<TRIPOS>BOND
     1     1    13    1
     2     1    23    1
     3     2    13    2
     4     3    14    2
     5     4    26    1
     6     4    59    1
     7     5    26    2
     8     6     7    1
     9     6    14   am
    10     6    37    1
    11     7     8    1
    12     7    10    1
    13     7    31    1
    14     8     9    1
    15     8    32    1
    16     8    33    1
    17     9    12    1
    18     9    13    1
    19     9    34    1
    20    10    11    1
    21    10    35    1
    22    10    36    1
    23    11    15   ar
    24    11    16   ar
    25    12    38    1
    26    12    39    1
    27    12    40    1
    28    14    17    1
    29    15    19   ar
    30    15    41    1
    31    16    20   ar
    32    16    42    1
    33    17    21    1
    34    17    43    1
    35    17    44    1
    36    18    19   ar
    37    18    20   ar
    38    18    22    1
    39    19    45    1
    40    20    46    1
    41    21    26    1
    42    21    47    1
    43    21    48    1
    44    22    24   ar
    45    22    25   ar
    46    23    27    1
    47    23    49    1
    48    23    50    1
    49    24    28   ar
    50    24    51    1
    51    25    29   ar
    52    25    52    1
    53    27    53    1
    54    27    54    1
    55    27    55    1
    56    28    30   ar
    57    28    56    1
    58    29    30   ar
    59    29    57    1
    60    30    58    1
@<TRIPOS>SUBSTRUCTURE
     1 RES1        1 GROUP             0 ****  ****    0  
@<TRIPOS>MOLECULE
drug-sacubitril_mmff94_00004
    59    60     1     0     0
SMALL
NO_CHARGES
****
Generated from the CSD

@<TRIPOS>ATOM
     1 O1      40.0899  25.5514 -12.4657   O.3       1 RES1   0.0000
     2 O2      38.3059  26.8792 -12.6713   O.2       1 RES1   0.0000
     3 O3      35.5589  23.6091 -13.5198   O.2       1 RES1   0.0000
     4 O4      30.7045  24.7545 -13.2992   O.3       1 RES1   0.0000
     5 O5      31.3022  24.5799 -11.1675   O.2       1 RES1   0.0000
     6 N6      36.2811  23.4052 -11.3997   N.am      1 RES1   0.0000
     7 C7      37.6633  23.0837 -11.7564   C.3       1 RES1   0.0000
     8 C8      38.6114  23.8406 -10.8203   C.3       1 RES1   0.0000
     9 C9      38.4638  25.3716 -10.7855   C.3       1 RES1   0.0000
    10 C10     37.8384  21.5602 -11.7323   C.3       1 RES1   0.0000
    11 C11     37.0050  20.8360 -12.7613   C.ar      1 RES1   0.0000
    12 C12     39.3104  25.9556  -9.6570   C.3       1 RES1   0.0000
    13 C13     38.9151  26.0328 -12.0693   C.2       1 RES1   0.0000
    14 C14     35.3368  23.6429 -12.3127   C.2       1 RES1   0.0000
    15 C15     35.7235  20.4036 -12.4671   C.ar      1 RES1   0.0000
    16 C16     37.4929  20.5926 -14.0334   C.ar      1 RES1   0.0000
    17 C17     33.9654  23.9589 -11.7674   C.3       1 RES1   0.0000
    18 C18     35.4353  19.4899 -14.6969   C.ar      1 RES1   0.0000
    19 C19     34.9567  19.7445 -13.4113   C.ar      1 RES1   0.0000
    20 C20     36.7270  19.9351 -14.9795   C.ar      1 RES1   0.0000
    21 C21     32.9499  24.2163 -12.8665   C.3       1 RES1   0.0000
    22 C22     34.6089  18.7788 -15.7162   C.ar      1 RES1   0.0000
    23 C23     40.6399  26.1005 -13.6989   C.3       1 RES1   0.0000
    24 C24     35.0928  18.5267 -17.0009   C.ar      1 RES1   0.0000
    25 C25     33.3172  18.3356 -15.4280   C.ar      1 RES1   0.0000
    26 C26     31.5774  24.5331 -12.3474   C.2       1 RES1   0.0000
    27 C27     41.9402  25.4362 -13.9598   C.3       1 RES1   0.0000
    28 C28     34.3247  17.8666 -17.9458   C.ar      1 RES1   0.0000
    29 C29     32.5515  17.6756 -16.3749   C.ar      1 RES1   0.0000
    30 C30     33.0534  17.4399 -17.6350   C.ar      1 RES1   0.0000
    31 H31     37.8430  23.4339 -12.7846   H         1 RES1   0.0000
    32 H32     38.4204  23.4703  -9.8055   H         1 RES1   0.0000
    33 H33     39.6493  23.5885 -11.0707   H         1 RES1   0.0000
    34 H34     37.4095  25.6239 -10.5935   H         1 RES1   0.0000
    35 H35     38.8943  21.3195 -11.9052   H         1 RES1   0.0000
    36 H36     37.5682  21.1887 -10.7361   H         1 RES1   0.0000
    37 H37     36.0352  23.4774 -10.4124   H         1 RES1   0.0000
    38 H38     40.3643  25.7336  -9.8110   H         1 RES1   0.0000
    39 H39     39.0131  25.5395  -8.6968   H         1 RES1   0.0000
    40 H40     39.1953  27.0364  -9.6083   H         1 RES1   0.0000
    41 H41     35.3134  20.5844 -11.4790   H         1 RES1   0.0000
    42 H42     38.4931  20.9232 -14.2932   H         1 RES1   0.0000
    43 H43     34.0303  24.8440 -11.1225   H         1 RES1   0.0000
    44 H44     33.6223  23.1201 -11.1493   H         1 RES1   0.0000
    45 H45     33.9612  19.4243 -13.1289   H         1 RES1   0.0000
    46 H46     37.1562  19.7700 -15.9602   H         1 RES1   0.0000
    47 H47     32.8900  23.3301 -13.5101   H         1 RES1   0.0000
    48 H48     33.2980  25.0540 -13.4833   H         1 RES1   0.0000
    49 H49     39.9498  25.9254 -14.5336   H         1 RES1   0.0000
    50 H50     40.7796  27.1843 -13.6031   H         1 RES1   0.0000
    51 H51     36.0887  18.8474 -17.2813   H         1 RES1   0.0000
    52 H52     32.8889  18.5036 -14.4474   H         1 RES1   0.0000
    53 H53     42.6349  25.6134 -13.1413   H         1 RES1   0.0000
    54 H54     41.8096  24.3614 -14.0667   H         1 RES1   0.0000
    55 H55     42.3905  25.8156 -14.8747   H         1 RES1   0.0000
    56 H56     34.7275  17.6848 -18.9367   H         1 RES1   0.0000
    57 H57     31.5503  17.3426 -16.1222   H         1 RES1   0.0000
    58 H58     32.4527  16.9228 -18.3759   H         1 RES1   0.0000
    59 H59     29.7849  24.9661 -12.9172   H         1 RES1   0.0000
@<TRIPOS>BOND
     1     1    13    1
     2     1    23    1
     3     2    13    2
     4     3    14    2
     5     4    26    1
     6     4    59    1
     7     5    26    2
     8     6     7    1
     9     6    14   am
    10     6    37    1
    11     7     8    1
    12     7    10    1
    13     7    31    1
    14     8     9    1
    15     8    32    1
    16     8    33    1
    17     9    12    1
    18     9    13    1
    19     9    34    1
    20    10    11    1
    21    10    35    1
    22    10    36    1
    23    11    15   ar
    24    11    16   ar
    25    12    38    1
    26    12    39    1
    27    12    40    1
    28    14    17    1
    29    15    19   ar
    30    15    41    1
    31    16    20   ar
    32    16    42    1
    33    17    21    1
    34    17    43    1
    35    17    44    1
    36    18    19   ar
    37    18    20   ar
    38    18    22    1
    39    19    45    1
    40    20    46    1
    41    21    26    1
    42    21    47    1
    43    21    48    1
    44    22    24   ar
    45    22    25   ar
    46    23    27    1
    47    23    49    1
    48    23    50    1
    49    24    28   ar
    50    24    51    1
    51    25    29   ar
    52    25    52    1
    53    27    53    1
    54    27    54    1
    55    27    55    1
    56    28    30   ar
    57    28    56    1
    58    29    30   ar
    59    29    57    1
    60    30    58    1
@<TRIPOS>SUBSTRUCTURE
     1 RES1        1 GROUP             0 ****  ****    0  
@<TRIPOS>MOLECULE
drug-sacubitril_mmff94_00005
    59    60     1     0     0
SMALL
NO_CHARGES
****
Generated from the CSD

@<TRIPOS>ATOM
     1 O1      40.0975  26.7845 -11.9113   O.3       1 RES1   0.0000
     2 O2      40.0680  25.5774 -10.0325   O.2       1 RES1   0.0000
     3 O3      35.4884  23.8839 -13.9630   O.2       1 RES1   0.0000
     4 O4      31.8186  26.6923 -11.5288   O.3       1 RES1   0.0000
     5 O5      31.6024  24.5742 -10.8970   O.2       1 RES1   0.0000
     6 N6      36.2964  23.0188 -12.0507   N.am      1 RES1   0.0000
     7 C7      37.6342  22.7480 -12.5778   C.3       1 RES1   0.0000
     8 C8      38.6604  23.5620 -11.7824   C.3       1 RES1   0.0000
     9 C9      38.4808  25.0899 -11.7925   C.3       1 RES1   0.0000
    10 C10     37.8775  21.2339 -12.5546   C.3       1 RES1   0.0000
    11 C11     36.9516  20.4555 -13.4573   C.ar      1 RES1   0.0000
    12 C12     37.2076  25.4744 -11.0426   C.3       1 RES1   0.0000
    13 C13     39.6275  25.8188 -11.1269   C.2       1 RES1   0.0000
    14 C14     35.3277  23.5669 -12.7877   C.2       1 RES1   0.0000
    15 C15     35.7386  19.9761 -12.9945   C.ar      1 RES1   0.0000
    16 C16     37.2829  20.2075 -14.7781   C.ar      1 RES1   0.0000
    17 C17     34.0094  23.7759 -12.0832   C.3       1 RES1   0.0000
    18 C18     35.2075  19.0073 -15.1553   C.ar      1 RES1   0.0000
    19 C19     34.8867  19.2672 -13.8226   C.ar      1 RES1   0.0000
    20 C20     36.4317  19.5001 -15.6082   C.ar      1 RES1   0.0000
    21 C21     33.5348  25.2162 -12.1570   C.3       1 RES1   0.0000
    22 C22     34.2893  18.2424 -16.0495   C.ar      1 RES1   0.0000
    23 C23     41.2053  27.5732 -11.3864   C.3       1 RES1   0.0000
    24 C24     34.6154  17.9852 -17.3820   C.ar      1 RES1   0.0000
    25 C25     33.0657  17.7519 -15.5911   C.ar      1 RES1   0.0000
    26 C26     32.2242  25.4481 -11.4625   C.2       1 RES1   0.0000
    27 C27     41.5748  28.5851 -12.4061   C.3       1 RES1   0.0000
    28 C28     33.7623  17.2752 -18.2106   C.ar      1 RES1   0.0000
    29 C29     32.2147  17.0421 -16.4221   C.ar      1 RES1   0.0000
    30 C30     32.5610  16.8024 -17.7327   C.ar      1 RES1   0.0000
    31 H31     37.6654  23.0850 -13.6254   H         1 RES1   0.0000
    32 H32     38.5901  23.2312 -10.7389   H         1 RES1   0.0000
    33 H33     39.6705  23.3199 -12.1352   H         1 RES1   0.0000
    34 H34     38.3848  25.4309 -12.8350   H         1 RES1   0.0000
    35 H35     38.9121  21.0339 -12.8586   H         1 RES1   0.0000
    36 H36     37.7535  20.8712 -11.5267   H         1 RES1   0.0000
    37 H37     36.1040  22.8051 -11.0721   H         1 RES1   0.0000
    38 H38     36.8973  24.6742 -10.3739   H         1 RES1   0.0000
    39 H39     36.3942  25.6694 -11.7383   H         1 RES1   0.0000
    40 H40     37.3666  26.3711 -10.4471   H         1 RES1   0.0000
    41 H41     35.4508  20.1593 -11.9645   H         1 RES1   0.0000
    42 H42     38.2262  20.5741 -15.1691   H         1 RES1   0.0000
    43 H43     34.1142  23.4846 -11.0308   H         1 RES1   0.0000
    44 H44     33.2526  23.1236 -12.5362   H         1 RES1   0.0000
    45 H45     33.9505  18.9116 -13.4098   H         1 RES1   0.0000
    46 H46     36.7386  19.3336 -16.6335   H         1 RES1   0.0000
    47 H47     33.4337  25.5039 -13.2108   H         1 RES1   0.0000
    48 H48     34.2954  25.8650 -11.7054   H         1 RES1   0.0000
    49 H49     40.9113  28.0661 -10.4515   H         1 RES1   0.0000
    50 H50     42.0625  26.9249 -11.1667   H         1 RES1   0.0000
    51 H51     35.5523  18.3413 -17.7929   H         1 RES1   0.0000
    52 H52     32.7595  17.9214 -14.5660   H         1 RES1   0.0000
    53 H53     41.8781  28.1046 -13.3340   H         1 RES1   0.0000
    54 H54     40.7331  29.2396 -12.6227   H         1 RES1   0.0000
    55 H55     42.4015  29.2003 -12.0571   H         1 RES1   0.0000
    56 H56     34.0426  17.0906 -19.2424   H         1 RES1   0.0000
    57 H57     31.2696  16.6729 -16.0378   H         1 RES1   0.0000
    58 H58     31.8936  16.2463 -18.3827   H         1 RES1   0.0000
    59 H59     30.9292  26.8184 -11.0499   H         1 RES1   0.0000
@<TRIPOS>BOND
     1     1    13    1
     2     1    23    1
     3     2    13    2
     4     3    14    2
     5     4    26    1
     6     4    59    1
     7     5    26    2
     8     6     7    1
     9     6    14   am
    10     6    37    1
    11     7     8    1
    12     7    10    1
    13     7    31    1
    14     8     9    1
    15     8    32    1
    16     8    33    1
    17     9    12    1
    18     9    13    1
    19     9    34    1
    20    10    11    1
    21    10    35    1
    22    10    36    1
    23    11    15   ar
    24    11    16   ar
    25    12    38    1
    26    12    39    1
    27    12    40    1
    28    14    17    1
    29    15    19   ar
    30    15    41    1
    31    16    20   ar
    32    16    42    1
    33    17    21    1
    34    17    43    1
    35    17    44    1
    36    18    19   ar
    37    18    20   ar
    38    18    22    1
    39    19    45    1
    40    20    46    1
    41    21    26    1
    42    21    47    1
    43    21    48    1
    44    22    24   ar
    45    22    25   ar
    46    23    27    1
    47    23    49    1
    48    23    50    1
    49    24    28   ar
    50    24    51    1
    51    25    29   ar
    52    25    52    1
    53    27    53    1
    54    27    54    1
    55    27    55    1
    56    28    30   ar
    57    28    56    1
    58    29    30   ar
    59    29    57    1
    60    30    58    1
@<TRIPOS>SUBSTRUCTURE
     1 RES1        1 GROUP             0 ****  ****    0  
@<TRIPOS>MOLECULE
drug-sacubitril_mmff94_00006
    59    60     1     0     0
SMALL
NO_CHARGES
****
Generated from the CSD

@<TRIPOS>ATOM
     1 O1      38.3882  25.5364 -12.8625   O.3       1 RES1   0.0000
     2 O2      40.1333  26.4581 -11.8172   O.2       1 RES1   0.0000
     3 O3      35.9891  24.1463 -13.3366   O.2       1 RES1   0.0000
     4 O4      31.2592  25.7445 -13.3340   O.3       1 RES1   0.0000
     5 O5      31.5158  24.8540 -11.3158   O.2       1 RES1   0.0000
     6 N6      36.3678  23.2167 -11.3240   N.am      1 RES1   0.0000
     7 C7      37.7613  22.8633 -11.5967   C.3       1 RES1   0.0000
     8 C8      38.6674  23.5913 -10.5981   C.3       1 RES1   0.0000
     9 C9      38.5534  25.1251 -10.5597   C.3       1 RES1   0.0000
    10 C10     37.8977  21.3359 -11.5728   C.3       1 RES1   0.0000
    11 C11     37.1125  20.6384 -12.6568   C.ar      1 RES1   0.0000
    12 C12     39.3081  25.6781  -9.3532   C.3       1 RES1   0.0000
    13 C13     39.1342  25.7865 -11.7902   C.2       1 RES1   0.0000
    14 C14     35.5920  23.8348 -12.2173   C.2       1 RES1   0.0000
    15 C15     35.8052  20.2359 -12.4457   C.ar      1 RES1   0.0000
    16 C16     37.6725  20.3904 -13.8979   C.ar      1 RES1   0.0000
    17 C17     34.1829  24.1311 -11.7650   C.3       1 RES1   0.0000
    18 C18     35.6341  19.3425 -14.6957   C.ar      1 RES1   0.0000
    19 C19     35.0828  19.6014 -13.4405   C.ar      1 RES1   0.0000
    20 C20     36.9512  19.7574 -14.8944   C.ar      1 RES1   0.0000
    21 C21     33.3663  24.8334 -12.8352   C.3       1 RES1   0.0000
    22 C22     34.8557  18.6578 -15.7694   C.ar      1 RES1   0.0000
    23 C23     38.8333  26.1223 -14.1209   C.3       1 RES1   0.0000
    24 C24     35.4122  18.4012 -17.0234   C.ar      1 RES1   0.0000
    25 C25     33.5381  18.2450 -15.5652   C.ar      1 RES1   0.0000
    26 C26     31.9601  25.1386 -12.4075   C.2       1 RES1   0.0000
    27 C27     37.8727  25.7260 -15.1794   C.3       1 RES1   0.0000
    28 C28     34.6887  17.7657 -18.0189   C.ar      1 RES1   0.0000
    29 C29     32.8171  17.6095 -16.5625   C.ar      1 RES1   0.0000
    30 C30     33.3904  17.3687 -17.7906   C.ar      1 RES1   0.0000
    31 H31     38.0131  23.2150 -12.6092   H         1 RES1   0.0000
    32 H32     38.4061  23.2187  -9.6000   H         1 RES1   0.0000
    33 H33     39.7126  23.3166 -10.7867   H         1 RES1   0.0000
    34 H34     37.4922  25.4014 -10.4606   H         1 RES1   0.0000
    35 H35     38.9561  21.0703 -11.6817   H         1 RES1   0.0000
    36 H36     37.5571  20.9654 -10.5981   H         1 RES1   0.0000
    37 H37     35.9813  23.0065 -10.4038   H         1 RES1   0.0000
    38 H38     40.3661  25.4318  -9.4140   H         1 RES1   0.0000
    39 H39     38.9156  25.2608  -8.4283   H         1 RES1   0.0000
    40 H40     39.2146  26.7609  -9.3030   H         1 RES1   0.0000
    41 H41     35.3390  20.4212 -11.4837   H         1 RES1   0.0000
    42 H42     38.6947  20.6977 -14.0928   H         1 RES1   0.0000
    43 H43     34.2185  24.7612 -10.8677   H         1 RES1   0.0000
    44 H44     33.6876  23.1909 -11.4931   H         1 RES1   0.0000
    45 H45     34.0642  19.3042 -13.2226   H         1 RES1   0.0000
    46 H46     37.4364  19.5874 -15.8479   H         1 RES1   0.0000
    47 H47     33.3354  24.2012 -13.7311   H         1 RES1   0.0000
    48 H48     33.8663  25.7716 -13.1057   H         1 RES1   0.0000
    49 H49     38.8762  27.2152 -14.0368   H         1 RES1   0.0000
    50 H50     39.8408  25.7670 -14.3700   H         1 RES1   0.0000
    51 H51     36.4311  18.6988 -17.2392   H         1 RES1   0.0000
    52 H52     33.0539  18.4179 -14.6118   H         1 RES1   0.0000
    53 H53     37.8315  24.6432 -15.2770   H         1 RES1   0.0000
    54 H54     36.8721  26.0836 -14.9456   H         1 RES1   0.0000
    55 H55     38.1653  26.1422 -16.1411   H         1 RES1   0.0000
    56 H56     35.1478  17.5796 -18.9842   H         1 RES1   0.0000
    57 H57     31.7943  17.2999 -16.3747   H         1 RES1   0.0000
    58 H58     32.8246  16.8708 -18.5712   H         1 RES1   0.0000
    59 H59     30.3119  25.9379 -13.0154   H         1 RES1   0.0000
@<TRIPOS>BOND
     1     1    13    1
     2     1    23    1
     3     2    13    2
     4     3    14    2
     5     4    26    1
     6     4    59    1
     7     5    26    2
     8     6     7    1
     9     6    14   am
    10     6    37    1
    11     7     8    1
    12     7    10    1
    13     7    31    1
    14     8     9    1
    15     8    32    1
    16     8    33    1
    17     9    12    1
    18     9    13    1
    19     9    34    1
    20    10    11    1
    21    10    35    1
    22    10    36    1
    23    11    15   ar
    24    11    16   ar
    25    12    38    1
    26    12    39    1
    27    12    40    1
    28    14    17    1
    29    15    19   ar
    30    15    41    1
    31    16    20   ar
    32    16    42    1
    33    17    21    1
    34    17    43    1
    35    17    44    1
    36    18    19   ar
    37    18    20   ar
    38    18    22    1
    39    19    45    1
    40    20    46    1
    41    21    26    1
    42    21    47    1
    43    21    48    1
    44    22    24   ar
    45    22    25   ar
    46    23    27    1
    47    23    49    1
    48    23    50    1
    49    24    28   ar
    50    24    51    1
    51    25    29   ar
    52    25    52    1
    53    27    53    1
    54    27    54    1
    55    27    55    1
    56    28    30   ar
    57    28    56    1
    58    29    30   ar
    59    29    57    1
    60    30    58    1
@<TRIPOS>SUBSTRUCTURE
     1 RES1        1 GROUP             0 ****  ****    0  
@<TRIPOS>MOLECULE
drug-sacubitril_mmff94_00007
    59    60     1     0     0
SMALL
NO_CHARGES
****
Generated from the CSD

@<TRIPOS>ATOM
     1 O1      40.4976  25.8877 -10.9364   O.3       1 RES1   0.0000
     2 O2      40.3157  27.4572 -12.5148   O.2       1 RES1   0.0000
     3 O3      35.1994  23.5684 -13.9749   O.2       1 RES1   0.0000
     4 O4      30.6366  24.1744 -12.0410   O.3       1 RES1   0.0000
     5 O5      31.9568  24.0810 -10.2576   O.2       1 RES1   0.0000
     6 N6      36.6344  23.4594 -12.2466   N.am      1 RES1   0.0000
     7 C7      37.8304  23.2900 -13.0724   C.3       1 RES1   0.0000
     8 C8      38.9602  24.1534 -12.5012   C.3       1 RES1   0.0000
     9 C9      38.6921  25.6660 -12.4165   C.3       1 RES1   0.0000
    10 C10     38.1631  21.7954 -13.1599   C.3       1 RES1   0.0000
    11 C11     37.1041  20.9766 -13.8571   C.ar      1 RES1   0.0000
    12 C12     37.5917  25.9483 -11.3964   C.3       1 RES1   0.0000
    13 C13     39.9105  26.4535 -11.9872   C.2       1 RES1   0.0000
    14 C14     35.4111  23.5856 -12.7655   C.2       1 RES1   0.0000
    15 C15     36.0599  20.4073 -13.1492   C.ar      1 RES1   0.0000
    16 C16     37.1393  20.7799 -15.2267   C.ar      1 RES1   0.0000
    17 C17     34.2917  23.7527 -11.7670   C.3       1 RES1   0.0000
    18 C18     35.1087  19.4521 -15.1673   C.ar      1 RES1   0.0000
    19 C19     35.0857  19.6611 -13.7880   C.ar      1 RES1   0.0000
    20 C20     36.1652  20.0353 -15.8675   C.ar      1 RES1   0.0000
    21 C21     32.9350  23.8894 -12.4348   C.3       1 RES1   0.0000
    22 C22     34.0583  18.6471 -15.8574   C.ar      1 RES1   0.0000
    23 C23     41.6930  26.5444 -10.4221   C.3       1 RES1   0.0000
    24 C24     34.0863  18.4411 -17.2376   C.ar      1 RES1   0.0000
    25 C25     33.0034  18.0661 -15.1519   C.ar      1 RES1   0.0000
    26 C26     31.8053  24.0568 -11.4604   C.2       1 RES1   0.0000
    27 C27     42.1865  25.7616  -9.2628   C.3       1 RES1   0.0000
    28 C28     33.1108  17.6938 -17.8766   C.ar      1 RES1   0.0000
    29 C29     32.0295  17.3192 -15.7937   C.ar      1 RES1   0.0000
    30 C30     32.0811  17.1316 -17.1565   C.ar      1 RES1   0.0000
    31 H31     37.6012  23.6509 -14.0870   H         1 RES1   0.0000
    32 H32     39.1492  23.7970 -11.4811   H         1 RES1   0.0000
    33 H33     39.8760  23.9861 -13.0814   H         1 RES1   0.0000
    34 H34     38.3518  26.0236 -13.4006   H         1 RES1   0.0000
    35 H35     39.1110  21.6716 -13.6974   H         1 RES1   0.0000
    36 H36     38.2992  21.4031 -12.1445   H         1 RES1   0.0000
    37 H37     36.7431  23.5103 -11.2337   H         1 RES1   0.0000
    38 H38     37.6379  25.2388 -10.5728   H         1 RES1   0.0000
    39 H39     36.6092  25.8693 -11.8571   H         1 RES1   0.0000
    40 H40     37.6940  26.9508 -10.9862   H         1 RES1   0.0000
    41 H41     36.0045  20.5486 -12.0749   H         1 RES1   0.0000
    42 H42     37.9446  21.2171 -15.8077   H         1 RES1   0.0000
    43 H43     34.4843  24.6438 -11.1569   H         1 RES1   0.0000
    44 H44     34.2768  22.8854 -11.0955   H         1 RES1   0.0000
    45 H45     34.2916  19.2350 -13.1871   H         1 RES1   0.0000
    46 H46     36.2393  19.9118 -16.9411   H         1 RES1   0.0000
    47 H47     32.7476  22.9976 -13.0455   H         1 RES1   0.0000
    48 H48     32.9551  24.7561 -13.1069   H         1 RES1   0.0000
    49 H49     42.4634  26.5955 -11.2014   H         1 RES1   0.0000
    50 H50     41.4600  27.5715 -10.1153   H         1 RES1   0.0000
    51 H51     34.8814  18.8678 -17.8368   H         1 RES1   0.0000
    52 H52     32.9298  18.1926 -14.0787   H         1 RES1   0.0000
    53 H53     41.4323  25.7146  -8.4800   H         1 RES1   0.0000
    54 H54     42.4302  24.7439  -9.5602   H         1 RES1   0.0000
    55 H55     43.0819  26.2159  -8.8437   H         1 RES1   0.0000
    56 H56     33.1586  17.5507 -18.9511   H         1 RES1   0.0000
    57 H57     31.2210  16.8794 -15.2190   H         1 RES1   0.0000
    58 H58     31.3176  16.5463 -17.6582   H         1 RES1   0.0000
    59 H59     29.8918  24.2863 -11.3561   H         1 RES1   0.0000
@<TRIPOS>BOND
     1     1    13    1
     2     1    23    1
     3     2    13    2
     4     3    14    2
     5     4    26    1
     6     4    59    1
     7     5    26    2
     8     6     7    1
     9     6    14   am
    10     6    37    1
    11     7     8    1
    12     7    10    1
    13     7    31    1
    14     8     9    1
    15     8    32    1
    16     8    33    1
    17     9    12    1
    18     9    13    1
    19     9    34    1
    20    10    11    1
    21    10    35    1
    22    10    36    1
    23    11    15   ar
    24    11    16   ar
    25    12    38    1
    26    12    39    1
    27    12    40    1
    28    14    17    1
    29    15    19   ar
    30    15    41    1
    31    16    20   ar
    32    16    42    1
    33    17    21    1
    34    17    43    1
    35    17    44    1
    36    18    19   ar
    37    18    20   ar
    38    18    22    1
    39    19    45    1
    40    20    46    1
    41    21    26    1
    42    21    47    1
    43    21    48    1
    44    22    24   ar
    45    22    25   ar
    46    23    27    1
    47    23    49    1
    48    23    50    1
    49    24    28   ar
    50    24    51    1
    51    25    29   ar
    52    25    52    1
    53    27    53    1
    54    27    54    1
    55    27    55    1
    56    28    30   ar
    57    28    56    1
    58    29    30   ar
    59    29    57    1
    60    30    58    1
@<TRIPOS>SUBSTRUCTURE
     1 RES1        1 GROUP             0 ****  ****    0  
@<TRIPOS>MOLECULE
drug-sacubitril_mmff94_00008
    59    60     1     0     0
SMALL
NO_CHARGES
****
Generated from the CSD

@<TRIPOS>ATOM
     1 O1      38.6173  25.3220 -12.5037   O.3       1 RES1   0.0000
     2 O2      39.0642  23.3311 -13.4116   O.2       1 RES1   0.0000
     3 O3      34.4600  25.3038 -12.9641   O.2       1 RES1   0.0000
     4 O4      32.3305  29.3240 -10.9076   O.3       1 RES1   0.0000
     5 O5      32.8639  28.0591  -9.1619   O.2       1 RES1   0.0000
     6 N6      35.0472  23.9378 -11.2766   N.am      1 RES1   0.0000
     7 C7      35.6166  22.8980 -12.1343   C.3       1 RES1   0.0000
     8 C8      36.9199  22.3903 -11.5083   C.3       1 RES1   0.0000
     9 C9      38.0074  23.4444 -11.2380   C.3       1 RES1   0.0000
    10 C10     34.5602  21.8091 -12.3588   C.3       1 RES1   0.0000
    11 C11     34.9712  20.7615 -13.3646   C.ar      1 RES1   0.0000
    12 C12     39.1409  22.8318 -10.4187   C.3       1 RES1   0.0000
    13 C13     38.6209  23.9920 -12.5079   C.2       1 RES1   0.0000
    14 C14     34.5129  25.0608 -11.7617   C.2       1 RES1   0.0000
    15 C15     34.6845  20.9116 -14.7103   C.ar      1 RES1   0.0000
    16 C16     35.6568  19.6248 -12.9730   C.ar      1 RES1   0.0000
    17 C17     33.9719  26.0244 -10.7336   C.3       1 RES1   0.0000
    18 C18     35.7551  18.8027 -15.2543   C.ar      1 RES1   0.0000
    19 C19     35.0655  19.9546 -15.6338   C.ar      1 RES1   0.0000
    20 C20     36.0401  18.6674 -13.8952   C.ar      1 RES1   0.0000
    21 C21     33.3827  27.2737 -11.3637   C.3       1 RES1   0.0000
    22 C22     36.1665  17.7695 -16.2498   C.ar      1 RES1   0.0000
    23 C23     39.1883  25.9819 -13.6713   C.3       1 RES1   0.0000
    24 C24     36.8562  16.6189 -15.8644   C.ar      1 RES1   0.0000
    25 C25     35.8788  17.9101 -17.6083   C.ar      1 RES1   0.0000
    26 C26     32.8379  28.2476 -10.3595   C.2       1 RES1   0.0000
    27 C27     39.0871  27.4477 -13.4681   C.3       1 RES1   0.0000
    28 C28     37.2373  15.6610 -16.7894   C.ar      1 RES1   0.0000
    29 C29     36.2610  16.9503 -18.5309   C.ar      1 RES1   0.0000
    30 C30     36.9406  15.8245 -18.1237   C.ar      1 RES1   0.0000
    31 H31     35.8565  23.3501 -13.1091   H         1 RES1   0.0000
    32 H32     36.6556  21.9382 -10.5444   H         1 RES1   0.0000
    33 H33     37.3417  21.5968 -12.1374   H         1 RES1   0.0000
    34 H34     37.5675  24.2698 -10.6572   H         1 RES1   0.0000
    35 H35     34.3501  21.3132 -11.4035   H         1 RES1   0.0000
    36 H36     33.6321  22.2820 -12.7028   H         1 RES1   0.0000
    37 H37     35.0844  23.8118 -10.2651   H         1 RES1   0.0000
    38 H38     39.6091  22.0125 -10.9603   H         1 RES1   0.0000
    39 H39     38.7674  22.4436  -9.4734   H         1 RES1   0.0000
    40 H40     39.9052  23.5751 -10.2016   H         1 RES1   0.0000
    41 H41     34.1517  21.7949 -15.0467   H         1 RES1   0.0000
    42 H42     35.8979  19.4821 -11.9248   H         1 RES1   0.0000
    43 H43     34.7806  26.3125 -10.0506   H         1 RES1   0.0000
    44 H44     33.1983  25.5206 -10.1410   H         1 RES1   0.0000
    45 H45     34.8140  20.1192 -16.6745   H         1 RES1   0.0000
    46 H46     36.5747  17.7964 -13.5363   H         1 RES1   0.0000
    47 H47     32.5763  26.9809 -12.0474   H         1 RES1   0.0000
    48 H48     34.1587  27.7728 -11.9571   H         1 RES1   0.0000
    49 H49     40.2374  25.6877 -13.7988   H         1 RES1   0.0000
    50 H50     38.6462  25.6859 -14.5779   H         1 RES1   0.0000
    51 H51     37.1066  16.4560 -14.8233   H         1 RES1   0.0000
    52 H52     35.3460  18.7828 -17.9656   H         1 RES1   0.0000
    53 H53     38.0485  27.7501 -13.3512   H         1 RES1   0.0000
    54 H54     39.6310  27.7519 -12.5762   H         1 RES1   0.0000
    55 H55     39.5027  27.9846 -14.3182   H         1 RES1   0.0000
    56 H56     37.7727  14.7765 -16.4604   H         1 RES1   0.0000
    57 H57     36.0235  17.0867 -19.5808   H         1 RES1   0.0000
    58 H58     37.2395  15.0734 -18.8474   H         1 RES1   0.0000
    59 H59     31.9699  29.9643 -10.2031   H         1 RES1   0.0000
@<TRIPOS>BOND
     1     1    13    1
     2     1    23    1
     3     2    13    2
     4     3    14    2
     5     4    26    1
     6     4    59    1
     7     5    26    2
     8     6     7    1
     9     6    14   am
    10     6    37    1
    11     7     8    1
    12     7    10    1
    13     7    31    1
    14     8     9    1
    15     8    32    1
    16     8    33    1
    17     9    12    1
    18     9    13    1
    19     9    34    1
    20    10    11    1
    21    10    35    1
    22    10    36    1
    23    11    15   ar
    24    11    16   ar
    25    12    38    1
    26    12    39    1
    27    12    40    1
    28    14    17    1
    29    15    19   ar
    30    15    41    1
    31    16    20   ar
    32    16    42    1
    33    17    21    1
    34    17    43    1
    35    17    44    1
    36    18    19   ar
    37    18    20   ar
    38    18    22    1
    39    19    45    1
    40    20    46    1
    41    21    26    1
    42    21    47    1
    43    21    48    1
    44    22    24   ar
    45    22    25   ar
    46    23    27    1
    47    23    49    1
    48    23    50    1
    49    24    28   ar
    50    24    51    1
    51    25    29   ar
    52    25    52    1
    53    27    53    1
    54    27    54    1
    55    27    55    1
    56    28    30   ar
    57    28    56    1
    58    29    30   ar
    59    29    57    1
    60    30    58    1
@<TRIPOS>SUBSTRUCTURE
     1 RES1        1 GROUP             0 ****  ****    0  
@<TRIPOS>MOLECULE
drug-sacubitril_mmff94_00009
    59    60     1     0     0
SMALL
NO_CHARGES
****
Generated from the CSD

@<TRIPOS>ATOM
     1 O1      38.9939  25.3228 -12.8084   O.3       1 RES1   0.0000
     2 O2      40.6959  26.0393 -11.5522   O.2       1 RES1   0.0000
     3 O3      36.2072  23.6973 -13.7293   O.2       1 RES1   0.0000
     4 O4      30.9925  23.9564 -13.8645   O.3       1 RES1   0.0000
     5 O5      31.7391  25.6579 -12.6481   O.2       1 RES1   0.0000
     6 N6      36.2929  23.7376 -11.4823   N.am      1 RES1   0.0000
     7 C7      37.5907  23.0691 -11.3829   C.3       1 RES1   0.0000
     8 C8      38.4317  23.7651 -10.3076   C.3       1 RES1   0.0000
     9 C9      38.6619  25.2756 -10.4874   C.3       1 RES1   0.0000
    10 C10     37.3588  21.5742 -11.1309   C.3       1 RES1   0.0000
    11 C11     36.6566  20.8681 -12.2651   C.ar      1 RES1   0.0000
    12 C12     39.3014  25.8630  -9.2314   C.3       1 RES1   0.0000
    13 C13     39.5810  25.5941 -11.6462   C.2       1 RES1   0.0000
    14 C14     35.7034  23.9990 -12.6510   C.2       1 RES1   0.0000
    15 C15     35.2760  20.7801 -12.3064   C.ar      1 RES1   0.0000
    16 C16     37.3718  20.2975 -13.3036   C.ar      1 RES1   0.0000
    17 C17     34.3666  24.6949 -12.5676   C.3       1 RES1   0.0000
    18 C18     35.3381  19.5559 -14.4010   C.ar      1 RES1   0.0000
    19 C19     34.6311  20.1379 -13.3484   C.ar      1 RES1   0.0000
    20 C20     36.7286  19.6562 -14.3472   C.ar      1 RES1   0.0000
    21 C21     33.2728  23.9386 -13.3003   C.3       1 RES1   0.0000
    22 C22     34.6434  18.8627 -15.5255   C.ar      1 RES1   0.0000
    23 C23     39.7706  25.5908 -14.0124   C.3       1 RES1   0.0000
    24 C24     35.3558  18.2822 -16.5760   C.ar      1 RES1   0.0000
    25 C25     33.2519  18.7656 -15.5743   C.ar      1 RES1   0.0000
    26 C26     31.9332  24.6124 -13.2309   C.2       1 RES1   0.0000
    27 C27     38.9423  25.2235 -15.1868   C.3       1 RES1   0.0000
    28 C28     34.7097  17.6392 -17.6189   C.ar      1 RES1   0.0000
    29 C29     32.6087  18.1218 -16.6184   C.ar      1 RES1   0.0000
    30 C30     33.3357  17.5576 -17.6422   C.ar      1 RES1   0.0000
    31 H31     38.1082  23.1785 -12.3485   H         1 RES1   0.0000
    32 H32     37.9086  23.6252  -9.3535   H         1 RES1   0.0000
    33 H33     39.4041  23.2642 -10.2242   H         1 RES1   0.0000
    34 H34     37.6898  25.7684 -10.6436   H         1 RES1   0.0000
    35 H35     38.3262  21.0866 -10.9610   H         1 RES1   0.0000
    36 H36     36.7595  21.4578 -10.2194   H         1 RES1   0.0000
    37 H37     35.8321  24.0406 -10.6242   H         1 RES1   0.0000
    38 H38     40.2706  25.4062  -9.0425   H         1 RES1   0.0000
    39 H39     38.6707  25.6920  -8.3615   H         1 RES1   0.0000
    40 H40     39.4474  26.9358  -9.3386   H         1 RES1   0.0000
    41 H41     34.6893  21.2221 -11.5078   H         1 RES1   0.0000
    42 H42     38.4553  20.3540 -13.2992   H         1 RES1   0.0000
    43 H43     34.4578  25.7008 -12.9955   H         1 RES1   0.0000
    44 H44     34.0841  24.8051 -11.5133   H         1 RES1   0.0000
    45 H45     33.5489  20.0945 -13.3311   H         1 RES1   0.0000
    46 H46     37.3352  19.2266 -15.1351   H         1 RES1   0.0000
    47 H47     33.1868  22.9328 -12.8709   H         1 RES1   0.0000
    48 H48     33.5605  23.8286 -14.3532   H         1 RES1   0.0000
    49 H49     40.0457  26.6518 -14.0587   H         1 RES1   0.0000
    50 H50     40.6984  25.0056 -14.0041   H         1 RES1   0.0000
    51 H51     36.4380  18.3263 -16.5913   H         1 RES1   0.0000
    52 H52     32.6470  19.1978 -14.7866   H         1 RES1   0.0000
    53 H53     38.6734  24.1697 -15.1546   H         1 RES1   0.0000
    54 H54     38.0243  25.8070 -15.2089   H         1 RES1   0.0000
    55 H55     39.4831  25.4072 -16.1128   H         1 RES1   0.0000
    56 H56     35.2900  17.1972 -18.4221   H         1 RES1   0.0000
    57 H57     31.5254  18.0618 -16.6295   H         1 RES1   0.0000
    58 H58     32.8307  17.0535 -18.4596   H         1 RES1   0.0000
    59 H59     30.0973  24.4368 -13.7999   H         1 RES1   0.0000
@<TRIPOS>BOND
     1     1    13    1
     2     1    23    1
     3     2    13    2
     4     3    14    2
     5     4    26    1
     6     4    59    1
     7     5    26    2
     8     6     7    1
     9     6    14   am
    10     6    37    1
    11     7     8    1
    12     7    10    1
    13     7    31    1
    14     8     9    1
    15     8    32    1
    16     8    33    1
    17     9    12    1
    18     9    13    1
    19     9    34    1
    20    10    11    1
    21    10    35    1
    22    10    36    1
    23    11    15   ar
    24    11    16   ar
    25    12    38    1
    26    12    39    1
    27    12    40    1
    28    14    17    1
    29    15    19   ar
    30    15    41    1
    31    16    20   ar
    32    16    42    1
    33    17    21    1
    34    17    43    1
    35    17    44    1
    36    18    19   ar
    37    18    20   ar
    38    18    22    1
    39    19    45    1
    40    20    46    1
    41    21    26    1
    42    21    47    1
    43    21    48    1
    44    22    24   ar
    45    22    25   ar
    46    23    27    1
    47    23    49    1
    48    23    50    1
    49    24    28   ar
    50    24    51    1
    51    25    29   ar
    52    25    52    1
    53    27    53    1
    54    27    54    1
    55    27    55    1
    56    28    30   ar
    57    28    56    1
    58    29    30   ar
    59    29    57    1
    60    30    58    1
@<TRIPOS>SUBSTRUCTURE
     1 RES1        1 GROUP             0 ****  ****    0  
@<TRIPOS>MOLECULE
drug-sacubitril_mmff94_00010
    59    60     1     0     0
SMALL
NO_CHARGES
****
Generated from the CSD

@<TRIPOS>ATOM
     1 O1      39.9222  24.6121 -13.0174   O.3       1 RES1   0.0000
     2 O2      39.7441  23.4341 -11.1283   O.2       1 RES1   0.0000
     3 O3      33.5480  25.1557 -12.9868   O.2       1 RES1   0.0000
     4 O4      31.0527  28.7771 -10.6235   O.3       1 RES1   0.0000
     5 O5      32.2694  27.8415  -9.0185   O.2       1 RES1   0.0000
     6 N6      34.8262  24.1285 -11.4476   N.am      1 RES1   0.0000
     7 C7      35.4131  23.1644 -12.3786   C.3       1 RES1   0.0000
     8 C8      36.9097  23.0267 -12.0801   C.3       1 RES1   0.0000
     9 C9      37.7511  24.3106 -12.1838   C.3       1 RES1   0.0000
    10 C10     34.6295  21.8491 -12.2875   C.3       1 RES1   0.0000
    11 C11     35.0345  20.8272 -13.3219   C.ar      1 RES1   0.0000
    12 C12     37.3460  25.2943 -11.0885   C.3       1 RES1   0.0000
    13 C13     39.2337  24.0536 -12.0259   C.2       1 RES1   0.0000
    14 C14     33.9381  25.0498 -11.8274   C.2       1 RES1   0.0000
    15 C15     34.4129  20.7763 -14.5575   C.ar      1 RES1   0.0000
    16 C16     36.0470  19.9179 -13.0700   C.ar      1 RES1   0.0000
    17 C17     33.4366  25.9634 -10.7356   C.3       1 RES1   0.0000
    18 C18     35.8042  18.9192 -15.2685   C.ar      1 RES1   0.0000
    19 C19     34.7870  19.8436 -15.5083   C.ar      1 RES1   0.0000
    20 C20     36.4236  18.9855 -14.0201   C.ar      1 RES1   0.0000
    21 C21     32.4322  26.9807 -11.2470   C.3       1 RES1   0.0000
    22 C22     36.2084  17.9125 -16.2935   C.ar      1 RES1   0.0000
    23 C23     41.3700  24.4456 -12.9839   C.3       1 RES1   0.0000
    24 C24     37.2266  16.9899 -16.0481   C.ar      1 RES1   0.0000
    25 C25     35.5853  17.8508 -17.5409   C.ar      1 RES1   0.0000
    26 C26     31.9191  27.9010 -10.1777   C.2       1 RES1   0.0000
    27 C27     41.9410  25.1364 -14.1658   C.3       1 RES1   0.0000
    28 C28     37.6006  16.0562 -17.0003   C.ar      1 RES1   0.0000
    29 C29     35.9614  16.9158 -18.4911   C.ar      1 RES1   0.0000
    30 C30     36.9692  16.0171 -18.2230   C.ar      1 RES1   0.0000
    31 H31     35.3012  23.5609 -13.3996   H         1 RES1   0.0000
    32 H32     36.9969  22.6608 -11.0496   H         1 RES1   0.0000
    33 H33     37.3439  22.2625 -12.7366   H         1 RES1   0.0000
    34 H34     37.5623  24.7828 -13.1603   H         1 RES1   0.0000
    35 H35     34.7756  21.4149 -11.2911   H         1 RES1   0.0000
    36 H36     33.5606  22.0651 -12.4062   H         1 RES1   0.0000
    37 H37     35.1283  24.1136 -10.4735   H         1 RES1   0.0000
    38 H38     37.0584  24.7654 -10.1823   H         1 RES1   0.0000
    39 H39     36.5021  25.9018 -11.4087   H         1 RES1   0.0000
    40 H40     38.1705  25.9610 -10.8448   H         1 RES1   0.0000
    41 H41     33.6186  21.4798 -14.7842   H         1 RES1   0.0000
    42 H42     36.5542  19.9367 -12.1110   H         1 RES1   0.0000
    43 H43     34.2884  26.4912 -10.2892   H         1 RES1   0.0000
    44 H44     32.9686  25.3594  -9.9485   H         1 RES1   0.0000
    45 H45     34.2665  19.8444 -16.4582   H         1 RES1   0.0000
    46 H46     37.2220  18.2966 -13.7725   H         1 RES1   0.0000
    47 H47     31.5835  26.4488 -11.6945   H         1 RES1   0.0000
    48 H48     32.9034  27.5806 -12.0353   H         1 RES1   0.0000
    49 H49     41.7801  24.8718 -12.0600   H         1 RES1   0.0000
    50 H50     41.6304  23.3801 -13.0043   H         1 RES1   0.0000
    51 H51     37.7457  16.9904 -15.0974   H         1 RES1   0.0000
    52 H52     34.7887  18.5420 -17.7875   H         1 RES1   0.0000
    53 H53     41.5475  24.7129 -15.0875   H         1 RES1   0.0000
    54 H54     41.6964  26.1964 -14.1484   H         1 RES1   0.0000
    55 H55     43.0244  25.0388 -14.1834   H         1 RES1   0.0000
    56 H56     38.3959  15.3513 -16.7813   H         1 RES1   0.0000
    57 H57     35.4589  16.8916 -19.4524   H         1 RES1   0.0000
    58 H58     37.2629  15.2852 -18.9681   H         1 RES1   0.0000
    59 H59     30.7234  29.3860  -9.8771   H         1 RES1   0.0000
@<TRIPOS>BOND
     1     1    13    1
     2     1    23    1
     3     2    13    2
     4     3    14    2
     5     4    26    1
     6     4    59    1
     7     5    26    2
     8     6     7    1
     9     6    14   am
    10     6    37    1
    11     7     8    1
    12     7    10    1
    13     7    31    1
    14     8     9    1
    15     8    32    1
    16     8    33    1
    17     9    12    1
    18     9    13    1
    19     9    34    1
    20    10    11    1
    21    10    35    1
    22    10    36    1
    23    11    15   ar
    24    11    16   ar
    25    12    38    1
    26    12    39    1
    27    12    40    1
    28    14    17    1
    29    15    19   ar
    30    15    41    1
    31    16    20   ar
    32    16    42    1
    33    17    21    1
    34    17    43    1
    35    17    44    1
    36    18    19   ar
    37    18    20   ar
    38    18    22    1
    39    19    45    1
    40    20    46    1
    41    21    26    1
    42    21    47    1
    43    21    48    1
    44    22    24   ar
    45    22    25   ar
    46    23    27    1
    47    23    49    1
    48    23    50    1
    49    24    28   ar
    50    24    51    1
    51    25    29   ar
    52    25    52    1
    53    27    53    1
    54    27    54    1
    55    27    55    1
    56    28    30   ar
    57    28    56    1
    58    29    30   ar
    59    29    57    1
    60    30    58    1
@<TRIPOS>SUBSTRUCTURE
     1 RES1        1 GROUP             0 ****  ****    0  
