@<TRIPOS>MOLECULE
drug-sacubitril_mmff94
    59    60     1     0     0
SMALL
NO_CHARGES
****
Generated from the CSD

@<TRIPOS>ATOM
     1 O1      40.9436  24.8102 -12.4637   O.3       1 RES1   0.0000
     2 O2      39.9174  23.9099 -10.6192   O.2       1 RES1   0.0000
     3 O3      34.5390  25.6543 -13.1072   O.2       1 RES1   0.0000
     4 O4      29.5701  25.4099 -12.2806   O.3       1 RES1   0.0000
     5 O5      30.3714  23.6454 -11.1772   O.2       1 RES1   0.0000
     6 N6      35.4068  23.8039 -12.0652   N.am      1 RES1   0.0000
     7 C7      36.7961  24.0463 -12.4591   C.3       1 RES1   0.0000
     8 C8      37.4207  25.0797 -11.4919   C.3       1 RES1   0.0000
     9 C9      38.7925  25.6232 -11.9319   C.3       1 RES1   0.0000
    10 C10     37.5830  22.7165 -12.5280   C.3       1 RES1   0.0000
    11 C11     36.9218  21.6336 -13.3665   C.2       1 RES1   0.0000
    12 C12     39.0825  26.9649 -11.2593   C.3       1 RES1   0.0000
    13 C13     39.9230  24.6776 -11.5715   C.2       1 RES1   0.0000
    14 C14     34.3778  24.6390 -12.4397   C.2       1 RES1   0.0000
    15 C15     36.5319  20.4665 -12.8008   C.2       1 RES1   0.0000
    16 C16     36.7151  21.8091 -14.6933   C.2       1 RES1   0.0000
    17 C17     33.0308  24.1719 -11.9373   C.3       1 RES1   0.0000
    18 C18     35.7313  19.6860 -14.8636   C.2       1 RES1   0.0000
    19 C19     35.9425  19.5049 -13.5396   C.2       1 RES1   0.0000
    20 C20     36.1254  20.8485 -15.4327   C.2       1 RES1   0.0000
    21 C21     31.9103  25.0991 -12.3889   C.3       1 RES1   0.0000
    22 C22     35.0908  18.6445 -15.6650   C.2       1 RES1   0.0000
    23 C23     42.0641  23.9547 -12.2086   C.3       1 RES1   0.0000
    24 C24     35.8138  17.6060 -16.1494   C.2       1 RES1   0.0000
    25 C25     33.7645  18.7026 -15.9358   C.2       1 RES1   0.0000
    26 C26     30.5839  24.6201 -11.8780   C.2       1 RES1   0.0000
    27 C27     43.1061  24.2076 -13.2804   C.3       1 RES1   0.0000
    28 C28     35.2223  16.6459 -16.8890   C.2       1 RES1   0.0000
    29 C29     33.1740  17.7418 -16.6754   C.2       1 RES1   0.0000
    30 C30     33.9027  16.7137 -17.1520   C.2       1 RES1   0.0000
    31 H31     36.7716  24.4950 -13.4606   H         1 RES1   0.0000
    32 H32     36.7280  25.9286 -11.4136   H         1 RES1   0.0000
    33 H33     37.4738  24.6514 -10.4824   H         1 RES1   0.0000
    34 H34     38.7831  25.7641 -13.0198   H         1 RES1   0.0000
    35 H35     38.5807  22.8926 -12.9466   H         1 RES1   0.0000
    36 H36     37.7397  22.3452 -11.5063   H         1 RES1   0.0000
    37 H37     35.1996  22.9913 -11.4969   H         1 RES1   0.0000
    38 H38     39.0888  26.8687 -10.1677   H         1 RES1   0.0000
    39 H39     38.3285  27.7104 -11.5327   H         1 RES1   0.0000
    40 H40     40.0617  27.3526 -11.5612   H         1 RES1   0.0000
    41 H41     36.6891  20.2865 -11.7401   H         1 RES1   0.0000
    42 H42     37.0198  22.7310 -15.1825   H         1 RES1   0.0000
    43 H43     33.0670  24.1267 -10.8421   H         1 RES1   0.0000
    44 H44     32.8542  23.1558 -12.3108   H         1 RES1   0.0000
    45 H45     35.6369  18.5781 -13.0594   H         1 RES1   0.0000
    46 H46     35.9696  21.0178 -16.4957   H         1 RES1   0.0000
    47 H47     31.8690  25.1345 -13.4833   H         1 RES1   0.0000
    48 H48     32.0821  26.1127 -12.0095   H         1 RES1   0.0000
    49 H49     42.4845  24.1811 -11.2224   H         1 RES1   0.0000
    50 H50     41.7446  22.9070 -12.2431   H         1 RES1   0.0000
    51 H51     36.8800  17.5388 -15.9464   H         1 RES1   0.0000
    52 H52     33.1634  19.5259 -15.5573   H         1 RES1   0.0000
    53 H53     42.6934  24.0058 -14.2744   H         1 RES1   0.0000
    54 H54     43.4199  25.2567 -13.2729   H         1 RES1   0.0000
    55 H55     43.9848  23.5749 -13.1275   H         1 RES1   0.0000
    56 H56     35.8110  15.8177 -17.2732   H         1 RES1   0.0000
    57 H57     32.1099  17.7977 -16.8867   H         1 RES1   0.0000
    58 H58     33.4266  15.9402 -17.7480   H         1 RES1   0.0000
    59 H59     28.7714  24.9999 -11.8878   H         1 RES1   0.0000
@<TRIPOS>BOND
     1     1    13    1
     2     1    23    1
     3     2    13    2
     4     3    14    2
     5     4    26    1
     6     4    59    1
     7     5    26    2
     8     6     7    1
     9     6    14   am
    10     6    37    1
    11     7     8    1
    12     7    10    1
    13     7    31    1
    14     8     9    1
    15     8    32    1
    16     8    33    1
    17     9    12    1
    18     9    13    1
    19     9    34    1
    20    10    11    1
    21    10    35    1
    22    10    36    1
    23    11    15    2
    24    11    16    1
    25    12    38    1
    26    12    39    1
    27    12    40    1
    28    14    17    1
    29    15    19    1
    30    15    41    1
    31    16    20    2
    32    16    42    1
    33    17    21    1
    34    17    43    1
    35    17    44    1
    36    18    19    2
    37    18    20    1
    38    18    22    1
    39    19    45    1
    40    20    46    1
    41    21    26    1
    42    21    47    1
    43    21    48    1
    44    22    24    2
    45    22    25    1
    46    23    27    1
    47    23    49    1
    48    23    50    1
    49    24    28    1
    50    24    51    1
    51    25    29    2
    52    25    52    1
    53    27    53    1
    54    27    54    1
    55    27    55    1
    56    28    30    2
    57    28    56    1
    58    29    30    1
    59    29    57    1
    60    30    58    1
@<TRIPOS>SUBSTRUCTURE
     1 RES1        1 GROUP             0 ****  ****    0  
