# Mol2 written by MVD (www.molegro.com)

@<TRIPOS>MOLECULE
drug-sacubitril_PM6.out
   59    60    1     0     0
SMALL
USER_CHARGES


@<TRIPOS>ATOM
      1 O1         40.5252   24.2936  -12.9553 O.3       1     MOL1    0.0000
      2 O2         40.5401   24.4401  -10.7033 O.2       1     MOL1    0.0000
      3 O3         34.4913   24.9237  -13.5183 O.2       1     MOL1    0.0000
      4 O4         29.6913   25.4720  -12.1107 O.3       1     MOL1    0.0000
      5 O5         30.2097   23.3863  -11.5029 O.2       1     MOL1    0.0000
      6 N1         35.5008   23.9010  -11.7531 N.am      1     MOL1    0.0000
      7 C1         36.8787   24.0977  -12.2893 C.3       1     MOL1    0.0000
      8 C2         37.6056   25.1196  -11.3876 C.3       1     MOL1    0.0000
      9 C3         38.8731   25.6948  -12.0366 C.3       1     MOL1    0.0000
     10 C4         37.6112   22.7408  -12.3276 C.3       1     MOL1    0.0000
     11 C5         36.9164   21.7221  -13.1866 C.ar      1     MOL1    0.0000
     12 C6         39.2280   27.0749  -11.4861 C.3       1     MOL1    0.0000
     13 C7         40.0511   24.7695  -11.7658 C.2       1     MOL1    0.0000
     14 C8         34.3831   24.3154  -12.4476 C.2       1     MOL1    0.0000
     15 C9         36.4018   20.5491  -12.6140 C.ar      1     MOL1    0.0000
     16 C10        36.8058   21.9190  -14.5726 C.ar      1     MOL1    0.0000
     17 C11        33.0457   23.9827  -11.8207 C.3       1     MOL1    0.0000
     18 C12        35.6921   19.7745  -14.8015 C.ar      1     MOL1    0.0000
     19 C13        35.8005   19.5780  -13.4164 C.ar      1     MOL1    0.0000
     20 C14        36.1927   20.9558  -15.3733 C.ar      1     MOL1    0.0000
     21 C15        31.9528   24.8947  -12.3683 C.3       1     MOL1    0.0000
     22 C16        35.0596   18.7469  -15.6562 C.ar      1     MOL1    0.0000
     23 C17        41.7169   23.4320  -12.9660 C.3       1     MOL1    0.0000
     24 C18        35.5399   17.4275  -15.6497 C.ar      1     MOL1    0.0000
     25 C19        33.9777   19.0898  -16.4831 C.ar      1     MOL1    0.0000
     26 C20        30.5905   24.4576  -11.9390 C.2       1     MOL1    0.0000
     27 C21        42.9537   24.2866  -12.8182 C.3       1     MOL1    0.0000
     28 C22        34.9469   16.4649  -16.4705 C.ar      1     MOL1    0.0000
     29 C23        33.3862   18.1210  -17.2971 C.ar      1     MOL1    0.0000
     30 C24        33.8708   16.8091  -17.2947 C.ar      1     MOL1    0.0000
     31 H1         36.7961   24.5116  -13.3337 H         1     MOL1    0.0000
     32 H2         36.9100   25.9586  -11.1587 H         1     MOL1    0.0000
     33 H3         37.8356   24.6807  -10.3947 H         1     MOL1    0.0000
     34 H4         38.7232   25.7775  -13.1483 H         1     MOL1    0.0000
     35 H5         38.6421   22.8949  -12.7203 H         1     MOL1    0.0000
     36 H6         37.7535   22.3538  -11.2948 H         1     MOL1    0.0000
     37 H7         35.4229   23.3722  -10.8792 H         1     MOL1    0.0000
     38 H8         39.3923   27.0596  -10.4001 H         1     MOL1    0.0000
     39 H9         38.4223   27.7972  -11.6805 H         1     MOL1    0.0000
     40 H10        40.1370   27.4806  -11.9515 H         1     MOL1    0.0000
     41 H11        36.4707   20.3902  -11.5366 H         1     MOL1    0.0000
     42 H12        37.2030   22.8272  -15.0276 H         1     MOL1    0.0000
     43 H13        33.0878   24.0537  -10.7087 H         1     MOL1    0.0000
     44 H14        32.8030   22.9118  -12.0253 H         1     MOL1    0.0000
     45 H15        35.4122   18.6632  -12.9649 H         1     MOL1    0.0000
     46 H16        36.1092   21.1158  -16.4499 H         1     MOL1    0.0000
     47 H17        31.9896   24.9244  -13.4888 H         1     MOL1    0.0000
     48 H18        32.1330   25.9558  -12.0664 H         1     MOL1    0.0000
     49 H19        41.6107   22.6765  -12.1686 H         1     MOL1    0.0000
     50 H20        41.6225   22.9590  -13.9628 H         1     MOL1    0.0000
     51 H21        36.3784   17.1552  -15.0076 H         1     MOL1    0.0000
     52 H22        33.5994   20.1128  -16.4873 H         1     MOL1    0.0000
     53 H23        42.9969   25.0815  -13.5754 H         1     MOL1    0.0000
     54 H24        43.0014   24.7758  -11.8353 H         1     MOL1    0.0000
     55 H25        43.8669   23.6838  -12.9259 H         1     MOL1    0.0000
     56 H26        35.3260   15.4420  -16.4688 H         1     MOL1    0.0000
     57 H27        32.5449   18.3906  -17.9372 H         1     MOL1    0.0000
     58 H28        33.4115   16.0564  -17.9358 H         1     MOL1    0.0000
     59 H29        28.7469   25.2233  -11.8545 H         1     MOL1    0.0000
@<TRIPOS>BOND
     1    1   13 1
     2    3   14 2
     3    4   26 1
     4    4   59 1
     5    6   37 1
     6    7    6 1
     7    7    8 1
     8    8   32 1
     9    8   33 1
    10    9   13 1
    11    9   12 1
    12    9    8 1
    13   10    7 1
    14   10   36 1
    15   11   15 ar
    16   11   10 1
    17   12   38 1
    18   13    2 2
    19   14   17 1
    20   14    6 am
    21   15   41 1
    22   16   11 ar
    23   17   43 1
    24   18   19 ar
    25   19   45 1
    26   19   15 ar
    27   20   18 ar
    28   20   16 ar
    29   21   48 1
    30   21   26 1
    31   21   17 1
    32   22   24 ar
    33   22   18 1
    34   23    1 1
    35   23   27 1
    36   23   49 1
    37   24   51 1
    38   25   22 ar
    39   26    5 2
    40   27   54 1
    41   28   56 1
    42   28   24 ar
    43   29   30 ar
    44   29   25 ar
    45   30   28 ar
    46   31    7 1
    47   34    9 1
    48   35   10 1
    49   39   12 1
    50   40   12 1
    51   42   16 1
    52   44   17 1
    53   46   20 1
    54   47   21 1
    55   50   23 1
    56   52   25 1
    57   53   27 1
    58   55   27 1
    59   57   29 1
    60   58   30 1
@<TRIPOS>SUBSTRUCTURE
     1     MOL1    1   GROUP 1   MOL 1
#
# Pose information:
# Energy: -100.491
#
@<TRIPOS>MOLECULE
[00]UNK0-GLU1
   51    53    1     0     0
SMALL
USER_CHARGES


@<TRIPOS>ATOM
      1 C1         30.8264   19.1462  -14.6505 C.2       1     POS1    0.0000
      2 O1         30.5828   18.0263  -15.1102 O.2       1     POS1    0.0000
      3 C2         31.7281   19.3795  -13.4993 C.ar      1     POS1    0.0000
      4 C3         32.6621   18.3971  -13.1238 C.ar      1     POS1    0.0000
      5 C4         33.4555   18.5794  -12.0024 C.ar      1     POS1    0.0000
      6 C5         31.6032   20.5537  -12.7411 C.ar      1     POS1    0.0000
      7 C6         32.3978   20.7543  -11.6189 C.ar      1     POS1    0.0000
      8 C7         33.3343   19.7676  -11.2330 C.ar      1     POS1    0.0000
      9 N1         34.2354   19.9650  -10.1696 N.pl3     1     POS1    0.0000
     10 C8         33.7869   20.7614   -8.9895 C.3       1     POS1    0.0000
     11 C9         34.7550   21.8992   -8.7867 C.2       1     POS1    0.0000
     12 N2         36.0556   21.6209   -8.6692 N.2       1     POS1    0.0000
     13 C10        36.9171   22.6751   -8.5108 C.3       1     POS1    0.0000
     14 C11        38.3491   22.3866   -8.3688 C.2       1     POS1    0.0000
     15 O2         38.9069   21.3023   -8.3381 O.2       1     POS1    0.0000
     16 N3         39.1790   23.5475   -8.2498 N.am      1     POS1    0.0000
     17 C12        38.6533   24.8631   -8.2647 C.3       1     POS1    0.0000
     18 N4         39.5117   25.9134   -8.2114 N.3       1     POS1    0.0000
     19 N5         37.3022   25.1140   -8.3682 N.2       1     POS1    0.0000
     20 C13        36.4607   24.0338   -8.4872 C.2       1     POS1    0.0000
     21 N6         35.0903   24.3018   -8.5903 N.2       1     POS1    0.0000
     22 C14        34.2705   23.2622   -8.7322 C.2       1     POS1    0.0000
     23 H1         32.7532   17.4808  -13.7142 H         1     POS1    0.0000
     24 H2         34.1733   17.8103  -11.7125 H         1     POS1    0.0000
     25 H3         30.8758   21.3171  -13.0320 H         1     POS1    0.0000
     26 H4         32.2938   21.6762  -11.0458 H         1     POS1    0.0000
     27 H5         34.7850   19.1346   -9.9017 H         1     POS1    0.0000
     28 H6         32.7582   21.1599   -9.1808 H         1     POS1    0.0000
     29 H7         33.7110   20.1362   -8.0646 H         1     POS1    0.0000
     30 H8         40.2042   23.4037   -8.1520 H         1     POS1    0.0000
     31 H9         40.5104   25.7929   -8.0390 H         1     POS1    0.0000
     32 H10        39.1621   26.8724   -8.1584 H         1     POS1    0.0000
     33 H11        33.1875   23.4714   -8.8084 H         1     POS1    0.0000
     34 C15        33.6556   22.8092  -16.4478 C.2       1     POS1    0.0000
     35 C16        32.7345   22.2094  -15.4351 C.3       1     POS1    0.0000
     36 C17        31.2664   22.4140  -15.8057 C.3       1     POS1    0.0000
     37 C18        30.3464   21.6286  -14.8504 C.3       1     POS1    0.0000
     38 C19        28.9484   22.2684  -14.8728 C.2       1     POS1    0.0000
     39 O3         28.1946   22.4218  -15.8108 O.2       1     POS1    0.0000
     40 O4         28.6272   22.7006  -13.6276 O.3       1     POS1    0.0000
     41 N7         30.2109   20.2274  -15.2750 N.am      1     POS1    0.0000
     42 O5         33.8416   22.5003  -17.6114 O.2       1     POS1    0.0000
     43 O6         34.3378   23.8604  -15.9072 O.3       1     POS1    0.0000
     44 H12        32.9616   21.1223  -15.3031 H         1     POS1    0.0000
     45 H13        32.9701   22.6538  -14.4329 H         1     POS1    0.0000
     46 H14        31.0035   23.4956  -15.8124 H         1     POS1    0.0000
     47 H15        31.0858   22.0753  -16.8521 H         1     POS1    0.0000
     48 H16        30.7529   21.6845  -13.7963 H         1     POS1    0.0000
     49 H17        29.4315   22.8822  -13.0374 H         1     POS1    0.0000
     50 H18        29.6132   20.0526  -16.0962 H         1     POS1    0.0000
     51 H19        34.1590   23.9958  -14.9221 H         1     POS1    0.0000
@<TRIPOS>BOND
     1    1    3 1
     2    2    1 2
     3    3    4 ar
     4    4   23 1
     5    4    5 ar
     6    5   24 1
     7    6    3 ar
     8    6    7 ar
     9    7    8 ar
    10    8    5 ar
    11    8    9 1
    12    9   27 1
    13   10    9 1
    14   10   11 1
    15   11   22 1
    16   11   12 2
    17   12   13 1
    18   13   20 1
    19   13   14 1
    20   14   16 ar
    21   15   14 2
    22   16   17 1
    23   16   30 1
    24   17   18 1
    25   18   32 1
    26   18   31 1
    27   19   17 1
    28   20   19 2
    29   21   20 1
    30   22   21 2
    31   25    6 1
    32   26    7 1
    33   28   10 1
    34   29   10 1
    35   33   22 1
    36   34   43 1
    37   35   34 1
    38   35   44 1
    39   36   47 1
    40   36   35 1
    41   37   36 1
    42   37   48 1
    43   38   40 1
    44   38   37 1
    45   39   38 2
    46   41    1 am
    47   41   37 1
    48   42   34 2
    49   43   51 1
    50   45   35 1
    51   46   36 1
    52   49   40 1
    53   50   41 1
@<TRIPOS>SUBSTRUCTURE
     1     POS1    1   GROUP 1   POS 1
