# Mol2 written by MVD (www.molegro.com)

@<TRIPOS>MOLECULE
drug-sacubitril_PM6.out
   59    60    1     0     0
SMALL
USER_CHARGES


@<TRIPOS>ATOM
      1 O1         40.5252   24.2936  -12.9553 O.3       1     MOL1    0.0000
      2 O2         40.5401   24.4401  -10.7033 O.2       1     MOL1    0.0000
      3 O3         34.4913   24.9237  -13.5183 O.2       1     MOL1    0.0000
      4 O4         29.6913   25.4720  -12.1107 O.3       1     MOL1    0.0000
      5 O5         30.2097   23.3863  -11.5029 O.2       1     MOL1    0.0000
      6 N1         35.5008   23.9010  -11.7531 N.am      1     MOL1    0.0000
      7 C1         36.8787   24.0977  -12.2893 C.3       1     MOL1    0.0000
      8 C2         37.6056   25.1196  -11.3876 C.3       1     MOL1    0.0000
      9 C3         38.8731   25.6948  -12.0366 C.3       1     MOL1    0.0000
     10 C4         37.6112   22.7408  -12.3276 C.3       1     MOL1    0.0000
     11 C5         36.9164   21.7221  -13.1866 C.ar      1     MOL1    0.0000
     12 C6         39.2280   27.0749  -11.4861 C.3       1     MOL1    0.0000
     13 C7         40.0511   24.7695  -11.7658 C.2       1     MOL1    0.0000
     14 C8         34.3831   24.3154  -12.4476 C.2       1     MOL1    0.0000
     15 C9         36.4018   20.5491  -12.6140 C.ar      1     MOL1    0.0000
     16 C10        36.8058   21.9190  -14.5726 C.ar      1     MOL1    0.0000
     17 C11        33.0457   23.9827  -11.8207 C.3       1     MOL1    0.0000
     18 C12        35.6921   19.7745  -14.8015 C.ar      1     MOL1    0.0000
     19 C13        35.8005   19.5780  -13.4164 C.ar      1     MOL1    0.0000
     20 C14        36.1927   20.9558  -15.3733 C.ar      1     MOL1    0.0000
     21 C15        31.9528   24.8947  -12.3683 C.3       1     MOL1    0.0000
     22 C16        35.0596   18.7469  -15.6562 C.ar      1     MOL1    0.0000
     23 C17        41.7169   23.4320  -12.9660 C.3       1     MOL1    0.0000
     24 C18        35.5399   17.4275  -15.6497 C.ar      1     MOL1    0.0000
     25 C19        33.9777   19.0898  -16.4831 C.ar      1     MOL1    0.0000
     26 C20        30.5905   24.4576  -11.9390 C.2       1     MOL1    0.0000
     27 C21        42.9537   24.2866  -12.8182 C.3       1     MOL1    0.0000
     28 C22        34.9469   16.4649  -16.4705 C.ar      1     MOL1    0.0000
     29 C23        33.3862   18.1210  -17.2971 C.ar      1     MOL1    0.0000
     30 C24        33.8708   16.8091  -17.2947 C.ar      1     MOL1    0.0000
     31 H1         36.7961   24.5116  -13.3337 H         1     MOL1    0.0000
     32 H2         36.9100   25.9586  -11.1587 H         1     MOL1    0.0000
     33 H3         37.8356   24.6807  -10.3947 H         1     MOL1    0.0000
     34 H4         38.7232   25.7775  -13.1483 H         1     MOL1    0.0000
     35 H5         38.6421   22.8949  -12.7203 H         1     MOL1    0.0000
     36 H6         37.7535   22.3538  -11.2948 H         1     MOL1    0.0000
     37 H7         35.4229   23.3722  -10.8792 H         1     MOL1    0.0000
     38 H8         39.3923   27.0596  -10.4001 H         1     MOL1    0.0000
     39 H9         38.4223   27.7972  -11.6805 H         1     MOL1    0.0000
     40 H10        40.1370   27.4806  -11.9515 H         1     MOL1    0.0000
     41 H11        36.4707   20.3902  -11.5366 H         1     MOL1    0.0000
     42 H12        37.2030   22.8272  -15.0276 H         1     MOL1    0.0000
     43 H13        33.0878   24.0537  -10.7087 H         1     MOL1    0.0000
     44 H14        32.8030   22.9118  -12.0253 H         1     MOL1    0.0000
     45 H15        35.4122   18.6632  -12.9649 H         1     MOL1    0.0000
     46 H16        36.1092   21.1158  -16.4499 H         1     MOL1    0.0000
     47 H17        31.9896   24.9244  -13.4888 H         1     MOL1    0.0000
     48 H18        32.1330   25.9558  -12.0664 H         1     MOL1    0.0000
     49 H19        41.6107   22.6765  -12.1686 H         1     MOL1    0.0000
     50 H20        41.6225   22.9590  -13.9628 H         1     MOL1    0.0000
     51 H21        36.3784   17.1552  -15.0076 H         1     MOL1    0.0000
     52 H22        33.5994   20.1128  -16.4873 H         1     MOL1    0.0000
     53 H23        42.9969   25.0815  -13.5754 H         1     MOL1    0.0000
     54 H24        43.0014   24.7758  -11.8353 H         1     MOL1    0.0000
     55 H25        43.8669   23.6838  -12.9259 H         1     MOL1    0.0000
     56 H26        35.3260   15.4420  -16.4688 H         1     MOL1    0.0000
     57 H27        32.5449   18.3906  -17.9372 H         1     MOL1    0.0000
     58 H28        33.4115   16.0564  -17.9358 H         1     MOL1    0.0000
     59 H29        28.7469   25.2233  -11.8545 H         1     MOL1    0.0000
@<TRIPOS>BOND
     1    1   13 1
     2    3   14 2
     3    4   26 1
     4    4   59 1
     5    6   37 1
     6    7    6 1
     7    7    8 1
     8    8   32 1
     9    8   33 1
    10    9   13 1
    11    9   12 1
    12    9    8 1
    13   10    7 1
    14   10   36 1
    15   11   15 ar
    16   11   10 1
    17   12   38 1
    18   13    2 2
    19   14   17 1
    20   14    6 am
    21   15   41 1
    22   16   11 ar
    23   17   43 1
    24   18   19 ar
    25   19   45 1
    26   19   15 ar
    27   20   18 ar
    28   20   16 ar
    29   21   48 1
    30   21   26 1
    31   21   17 1
    32   22   24 ar
    33   22   18 1
    34   23    1 1
    35   23   27 1
    36   23   49 1
    37   24   51 1
    38   25   22 ar
    39   26    5 2
    40   27   54 1
    41   28   56 1
    42   28   24 ar
    43   29   30 ar
    44   29   25 ar
    45   30   28 ar
    46   31    7 1
    47   34    9 1
    48   35   10 1
    49   39   12 1
    50   40   12 1
    51   42   16 1
    52   44   17 1
    53   46   20 1
    54   47   21 1
    55   50   23 1
    56   52   25 1
    57   53   27 1
    58   55   27 1
    59   57   29 1
    60   58   30 1
@<TRIPOS>SUBSTRUCTURE
     1     MOL1    1   GROUP 1   MOL 1
#
# Pose information:
# Energy: -102.379
#
@<TRIPOS>MOLECULE
[00]maltitol
   47    47    1     0     0
SMALL
USER_CHARGES


@<TRIPOS>ATOM
      1 O1         30.8012   21.3837  -13.7848 O.3       1     POS1    0.0000
      2 C1         32.6530   20.0851  -12.9715 C.3       1     POS1    0.0000
      3 O2         32.6637   23.1217  -15.2611 O.3       1     POS1    0.0000
      4 C2         32.9662   21.7821  -14.8610 C.3       1     POS1    0.0000
      5 C3         32.2271   21.4536  -13.5525 C.3       1     POS1    0.0000
      6 O3         32.1256   20.1782  -11.6164 O.3       1     POS1    0.0000
      7 C4         32.5353   23.1591   -8.4769 C.3       1     POS1    0.0000
      8 C5         32.7682   21.0931  -10.7274 C.3       1     POS1    0.0000
      9 O4         31.9560   21.0444   -9.5357 O.3       1     POS1    0.0000
     10 C6         32.5319   21.6252   -8.3498 C.3       1     POS1    0.0000
     11 O5         31.1951   23.6268   -8.6637 O.3       1     POS1    0.0000
     12 C7         33.9277   21.0419   -8.0470 C.3       1     POS1    0.0000
     13 O6         33.7878   19.7010   -7.5731 O.3       1     POS1    0.0000
     14 C8         34.8685   21.0240   -9.2739 C.3       1     POS1    0.0000
     15 C9         32.1503   18.8136  -13.6940 C.3       1     POS1    0.0000
     16 O7         35.2235   22.3875   -9.5210 O.3       1     POS1    0.0000
     17 C10        34.1658   20.4677  -10.5329 C.3       1     POS1    0.0000
     18 O8         34.0729   19.0505  -10.3011 O.3       1     POS1    0.0000
     19 C11        32.4346   16.2145  -14.2047 C.3       1     POS1    0.0000
     20 O9         30.7330   18.7389  -13.5592 O.3       1     POS1    0.0000
     21 C12        32.7729   17.4415  -13.3433 C.3       1     POS1    0.0000
     22 O10        32.2542   17.2149  -12.0121 O.3       1     POS1    0.0000
     23 O11        31.0314   15.9454  -14.1304 O.3       1     POS1    0.0000
     24 H1         30.3082   21.9718  -13.1484 H         1     POS1    0.0000
     25 H2         33.7670   20.0166  -12.8839 H         1     POS1    0.0000
     26 H3         33.2099   23.7714  -14.7478 H         1     POS1    0.0000
     27 H4         32.7108   21.0731  -15.6731 H         1     POS1    0.0000
     28 H5         34.0687   21.7976  -14.7297 H         1     POS1    0.0000
     29 H6         32.3912   22.2655  -12.7958 H         1     POS1    0.0000
     30 H7         33.0544   23.4788   -9.4037 H         1     POS1    0.0000
     31 H8         32.9952   23.6677   -7.6068 H         1     POS1    0.0000
     32 H9         32.7726   22.1289  -11.1321 H         1     POS1    0.0000
     33 H10        31.7975   21.2932   -7.5696 H         1     POS1    0.0000
     34 H11        30.9213   23.5260   -9.6097 H         1     POS1    0.0000
     35 H12        34.4035   21.5792   -7.1896 H         1     POS1    0.0000
     36 H13        32.9804   19.2747   -7.9978 H         1     POS1    0.0000
     37 H14        35.7793   20.4177   -9.0515 H         1     POS1    0.0000
     38 H15        32.2771   18.9659  -14.8051 H         1     POS1    0.0000
     39 H16        34.4067   22.9258   -9.7031 H         1     POS1    0.0000
     40 H17        34.7872   20.6176  -11.4482 H         1     POS1    0.0000
     41 H18        33.4357   18.6431  -10.9575 H         1     POS1    0.0000
     42 H19        32.6070   16.4287  -15.2795 H         1     POS1    0.0000
     43 H20        33.0045   15.3080  -13.9276 H         1     POS1    0.0000
     44 H21        30.4224   19.2424  -12.7397 H         1     POS1    0.0000
     45 H22        33.8846   17.5552  -13.2784 H         1     POS1    0.0000
     46 H23        32.0839   18.0761  -11.5547 H         1     POS1    0.0000
     47 H24        30.7995   15.6227  -13.2033 H         1     POS1    0.0000
@<TRIPOS>BOND
     1    1   24 1
     2    2    5 1
     3    2   15 1
     4    3   26 1
     5    4    3 1
     6    4    5 1
     7    4   27 1
     8    5    1 1
     9    6    2 1
    10    7   30 1
    11    8   32 1
    12    8    6 1
    13    9    8 1
    14   10    7 1
    15   10    9 1
    16   11    7 1
    17   12   14 1
    18   12   10 1
    19   13   12 1
    20   13   36 1
    21   14   16 1
    22   14   17 1
    23   15   21 1
    24   15   20 1
    25   17   40 1
    26   17    8 1
    27   18   17 1
    28   18   41 1
    29   19   21 1
    30   19   23 1
    31   20   44 1
    32   21   45 1
    33   22   46 1
    34   22   21 1
    35   23   47 1
    36   25    2 1
    37   28    4 1
    38   29    5 1
    39   31    7 1
    40   33   10 1
    41   34   11 1
    42   35   12 1
    43   37   14 1
    44   38   15 1
    45   39   16 1
    46   42   19 1
    47   43   19 1
@<TRIPOS>SUBSTRUCTURE
     1     POS1    1   GROUP 1   POS 1
