# Mol2 written by MVD (www.molegro.com)

@<TRIPOS>MOLECULE
drug-sacubitril_PM6.out
   59    60    1     0     0
SMALL
USER_CHARGES


@<TRIPOS>ATOM
      1 O1         40.5252   24.2936  -12.9553 O.3       1     MOL1    0.0000
      2 O2         40.5401   24.4401  -10.7033 O.2       1     MOL1    0.0000
      3 O3         34.4913   24.9237  -13.5183 O.2       1     MOL1    0.0000
      4 O4         29.6913   25.4720  -12.1107 O.3       1     MOL1    0.0000
      5 O5         30.2097   23.3863  -11.5029 O.2       1     MOL1    0.0000
      6 N1         35.5008   23.9010  -11.7531 N.am      1     MOL1    0.0000
      7 C1         36.8787   24.0977  -12.2893 C.3       1     MOL1    0.0000
      8 C2         37.6056   25.1196  -11.3876 C.3       1     MOL1    0.0000
      9 C3         38.8731   25.6948  -12.0366 C.3       1     MOL1    0.0000
     10 C4         37.6112   22.7408  -12.3276 C.3       1     MOL1    0.0000
     11 C5         36.9164   21.7221  -13.1866 C.ar      1     MOL1    0.0000
     12 C6         39.2280   27.0749  -11.4861 C.3       1     MOL1    0.0000
     13 C7         40.0511   24.7695  -11.7658 C.2       1     MOL1    0.0000
     14 C8         34.3831   24.3154  -12.4476 C.2       1     MOL1    0.0000
     15 C9         36.4018   20.5491  -12.6140 C.ar      1     MOL1    0.0000
     16 C10        36.8058   21.9190  -14.5726 C.ar      1     MOL1    0.0000
     17 C11        33.0457   23.9827  -11.8207 C.3       1     MOL1    0.0000
     18 C12        35.6921   19.7745  -14.8015 C.ar      1     MOL1    0.0000
     19 C13        35.8005   19.5780  -13.4164 C.ar      1     MOL1    0.0000
     20 C14        36.1927   20.9558  -15.3733 C.ar      1     MOL1    0.0000
     21 C15        31.9528   24.8947  -12.3683 C.3       1     MOL1    0.0000
     22 C16        35.0596   18.7469  -15.6562 C.ar      1     MOL1    0.0000
     23 C17        41.7169   23.4320  -12.9660 C.3       1     MOL1    0.0000
     24 C18        35.5399   17.4275  -15.6497 C.ar      1     MOL1    0.0000
     25 C19        33.9777   19.0898  -16.4831 C.ar      1     MOL1    0.0000
     26 C20        30.5905   24.4576  -11.9390 C.2       1     MOL1    0.0000
     27 C21        42.9537   24.2866  -12.8182 C.3       1     MOL1    0.0000
     28 C22        34.9469   16.4649  -16.4705 C.ar      1     MOL1    0.0000
     29 C23        33.3862   18.1210  -17.2971 C.ar      1     MOL1    0.0000
     30 C24        33.8708   16.8091  -17.2947 C.ar      1     MOL1    0.0000
     31 H1         36.7961   24.5116  -13.3337 H         1     MOL1    0.0000
     32 H2         36.9100   25.9586  -11.1587 H         1     MOL1    0.0000
     33 H3         37.8356   24.6807  -10.3947 H         1     MOL1    0.0000
     34 H4         38.7232   25.7775  -13.1483 H         1     MOL1    0.0000
     35 H5         38.6421   22.8949  -12.7203 H         1     MOL1    0.0000
     36 H6         37.7535   22.3538  -11.2948 H         1     MOL1    0.0000
     37 H7         35.4229   23.3722  -10.8792 H         1     MOL1    0.0000
     38 H8         39.3923   27.0596  -10.4001 H         1     MOL1    0.0000
     39 H9         38.4223   27.7972  -11.6805 H         1     MOL1    0.0000
     40 H10        40.1370   27.4806  -11.9515 H         1     MOL1    0.0000
     41 H11        36.4707   20.3902  -11.5366 H         1     MOL1    0.0000
     42 H12        37.2030   22.8272  -15.0276 H         1     MOL1    0.0000
     43 H13        33.0878   24.0537  -10.7087 H         1     MOL1    0.0000
     44 H14        32.8030   22.9118  -12.0253 H         1     MOL1    0.0000
     45 H15        35.4122   18.6632  -12.9649 H         1     MOL1    0.0000
     46 H16        36.1092   21.1158  -16.4499 H         1     MOL1    0.0000
     47 H17        31.9896   24.9244  -13.4888 H         1     MOL1    0.0000
     48 H18        32.1330   25.9558  -12.0664 H         1     MOL1    0.0000
     49 H19        41.6107   22.6765  -12.1686 H         1     MOL1    0.0000
     50 H20        41.6225   22.9590  -13.9628 H         1     MOL1    0.0000
     51 H21        36.3784   17.1552  -15.0076 H         1     MOL1    0.0000
     52 H22        33.5994   20.1128  -16.4873 H         1     MOL1    0.0000
     53 H23        42.9969   25.0815  -13.5754 H         1     MOL1    0.0000
     54 H24        43.0014   24.7758  -11.8353 H         1     MOL1    0.0000
     55 H25        43.8669   23.6838  -12.9259 H         1     MOL1    0.0000
     56 H26        35.3260   15.4420  -16.4688 H         1     MOL1    0.0000
     57 H27        32.5449   18.3906  -17.9372 H         1     MOL1    0.0000
     58 H28        33.4115   16.0564  -17.9358 H         1     MOL1    0.0000
     59 H29        28.7469   25.2233  -11.8545 H         1     MOL1    0.0000
@<TRIPOS>BOND
     1    1   13 1
     2    3   14 2
     3    4   26 1
     4    4   59 1
     5    6   37 1
     6    7    6 1
     7    7    8 1
     8    8   32 1
     9    8   33 1
    10    9   13 1
    11    9   12 1
    12    9    8 1
    13   10    7 1
    14   10   36 1
    15   11   15 ar
    16   11   10 1
    17   12   38 1
    18   13    2 2
    19   14   17 1
    20   14    6 am
    21   15   41 1
    22   16   11 ar
    23   17   43 1
    24   18   19 ar
    25   19   45 1
    26   19   15 ar
    27   20   18 ar
    28   20   16 ar
    29   21   48 1
    30   21   26 1
    31   21   17 1
    32   22   24 ar
    33   22   18 1
    34   23    1 1
    35   23   27 1
    36   23   49 1
    37   24   51 1
    38   25   22 ar
    39   26    5 2
    40   27   54 1
    41   28   56 1
    42   28   24 ar
    43   29   30 ar
    44   29   25 ar
    45   30   28 ar
    46   31    7 1
    47   34    9 1
    48   35   10 1
    49   39   12 1
    50   40   12 1
    51   42   16 1
    52   44   17 1
    53   46   20 1
    54   47   21 1
    55   50   23 1
    56   52   25 1
    57   53   27 1
    58   55   27 1
    59   57   29 1
    60   58   30 1
@<TRIPOS>SUBSTRUCTURE
     1     MOL1    1   GROUP 1   MOL 1
#
# Pose information:
# Energy: -97.6312
#
@<TRIPOS>MOLECULE
[00]lactose
   45    46    1     0     0
SMALL
USER_CHARGES


@<TRIPOS>ATOM
      1 O1         34.9128   24.1846  -16.0471 O.3       1     POS1    0.0000
      2 C1         34.2901   23.6108  -17.1976 C.3       1     POS1    0.0000
      3 C2         32.8785   23.1219  -16.8276 C.3       1     POS1    0.0000
      4 O2         33.1592   22.2004  -15.7417 O.3       1     POS1    0.0000
      5 C3         32.0238   21.6398  -15.0692 C.3       1     POS1    0.0000
      6 O3         32.6844   21.1923  -13.8627 O.3       1     POS1    0.0000
      7 C4         31.9782   20.1471  -13.1395 C.3       1     POS1    0.0000
      8 C5         31.8370   18.9049  -14.0374 C.3       1     POS1    0.0000
      9 O4         30.6443   19.1666  -14.7989 O.3       1     POS1    0.0000
     10 C6         31.6166   17.5994  -13.2356 C.3       1     POS1    0.0000
     11 O5         31.9742   16.4818  -14.0448 O.3       1     POS1    0.0000
     12 C7         32.4160   17.5279  -11.9119 C.3       1     POS1    0.0000
     13 O6         33.7404   17.2112  -12.2957 O.3       1     POS1    0.0000
     14 O7         32.4276   18.7659  -11.2008 O.3       1     POS1    0.0000
     15 C8         32.9257   19.8993  -11.9453 C.3       1     POS1    0.0000
     16 C9         32.9149   21.0537  -10.9304 C.3       1     POS1    0.0000
     17 O8         33.8790   20.7908   -9.9030 O.3       1     POS1    0.0000
     18 C10        30.9877   22.7004  -14.6356 C.3       1     POS1    0.0000
     19 O9         29.8231   21.9160  -14.3400 O.3       1     POS1    0.0000
     20 C11        30.6483   23.7220  -15.7404 C.3       1     POS1    0.0000
     21 O10        29.9381   24.8125  -15.1593 O.3       1     POS1    0.0000
     22 C12        31.9265   24.2594  -16.4199 C.3       1     POS1    0.0000
     23 O11        32.5314   25.1014  -15.4242 O.3       1     POS1    0.0000
     24 H1         34.2664   24.2517  -15.2972 H         1     POS1    0.0000
     25 H2         34.2472   24.3510  -18.0216 H         1     POS1    0.0000
     26 H3         34.9646   22.7795  -17.4833 H         1     POS1    0.0000
     27 H4         32.4225   22.5291  -17.6587 H         1     POS1    0.0000
     28 H5         31.6138   20.7909  -15.6556 H         1     POS1    0.0000
     29 H6         30.9765   20.5275  -12.8249 H         1     POS1    0.0000
     30 H7         32.7009   18.8075  -14.7366 H         1     POS1    0.0000
     31 H8         30.3465   20.1034  -14.6555 H         1     POS1    0.0000
     32 H9         30.5242   17.4432  -13.0407 H         1     POS1    0.0000
     33 H10        32.8834   16.1473  -13.7970 H         1     POS1    0.0000
     34 H11        32.0114   16.8157  -11.1577 H         1     POS1    0.0000
     35 H12        34.3216   17.0527  -11.4998 H         1     POS1    0.0000
     36 H13        33.9617   19.6776  -12.2983 H         1     POS1    0.0000
     37 H14        33.1368   22.0326  -11.3944 H         1     POS1    0.0000
     38 H15        31.9479   21.1129  -10.3911 H         1     POS1    0.0000
     39 H16        33.9392   19.8023   -9.7388 H         1     POS1    0.0000
     40 H17        31.3274   23.2177  -13.7031 H         1     POS1    0.0000
     41 H18        29.5417   22.0850  -13.3987 H         1     POS1    0.0000
     42 H19        29.9251   23.2947  -16.4779 H         1     POS1    0.0000
     43 H20        30.0264   24.7826  -14.1598 H         1     POS1    0.0000
     44 H21        31.6714   24.8738  -17.3181 H         1     POS1    0.0000
     45 H22        33.2361   24.5978  -14.9386 H         1     POS1    0.0000
@<TRIPOS>BOND
     1    2    1 1
     2    2   26 1
     3    3   22 1
     4    3    2 1
     5    4    3 1
     6    5   18 1
     7    5    6 1
     8    5    4 1
     9    7   15 1
    10    7    6 1
    11    8    7 1
    12    8   30 1
    13    9    8 1
    14   10   12 1
    15   10    8 1
    16   11   10 1
    17   11   33 1
    18   12   14 1
    19   12   13 1
    20   13   35 1
    21   14   15 1
    22   15   16 1
    23   15   36 1
    24   16   38 1
    25   16   17 1
    26   18   20 1
    27   18   40 1
    28   19   18 1
    29   20   21 1
    30   20   22 1
    31   21   43 1
    32   22   44 1
    33   22   23 1
    34   23   45 1
    35   24    1 1
    36   25    2 1
    37   27    3 1
    38   28    5 1
    39   29    7 1
    40   31    9 1
    41   32   10 1
    42   34   12 1
    43   37   16 1
    44   39   17 1
    45   41   19 1
    46   42   20 1
@<TRIPOS>SUBSTRUCTURE
     1     POS1    1   GROUP 1   POS 1
