# Mol2 written by MVD (www.molegro.com)

@<TRIPOS>MOLECULE
drug-sacubitril_PM6.out
   59    60    1     0     0
SMALL
USER_CHARGES


@<TRIPOS>ATOM
      1 O1         40.5252   24.2936  -12.9553 O.3       1     MOL1    0.0000
      2 O2         40.5401   24.4401  -10.7033 O.2       1     MOL1    0.0000
      3 O3         34.4913   24.9237  -13.5183 O.2       1     MOL1    0.0000
      4 O4         29.6913   25.4720  -12.1107 O.3       1     MOL1    0.0000
      5 O5         30.2097   23.3863  -11.5029 O.2       1     MOL1    0.0000
      6 N1         35.5008   23.9010  -11.7531 N.am      1     MOL1    0.0000
      7 C1         36.8787   24.0977  -12.2893 C.3       1     MOL1    0.0000
      8 C2         37.6056   25.1196  -11.3876 C.3       1     MOL1    0.0000
      9 C3         38.8731   25.6948  -12.0366 C.3       1     MOL1    0.0000
     10 C4         37.6112   22.7408  -12.3276 C.3       1     MOL1    0.0000
     11 C5         36.9164   21.7221  -13.1866 C.ar      1     MOL1    0.0000
     12 C6         39.2280   27.0749  -11.4861 C.3       1     MOL1    0.0000
     13 C7         40.0511   24.7695  -11.7658 C.2       1     MOL1    0.0000
     14 C8         34.3831   24.3154  -12.4476 C.2       1     MOL1    0.0000
     15 C9         36.4018   20.5491  -12.6140 C.ar      1     MOL1    0.0000
     16 C10        36.8058   21.9190  -14.5726 C.ar      1     MOL1    0.0000
     17 C11        33.0457   23.9827  -11.8207 C.3       1     MOL1    0.0000
     18 C12        35.6921   19.7745  -14.8015 C.ar      1     MOL1    0.0000
     19 C13        35.8005   19.5780  -13.4164 C.ar      1     MOL1    0.0000
     20 C14        36.1927   20.9558  -15.3733 C.ar      1     MOL1    0.0000
     21 C15        31.9528   24.8947  -12.3683 C.3       1     MOL1    0.0000
     22 C16        35.0596   18.7469  -15.6562 C.ar      1     MOL1    0.0000
     23 C17        41.7169   23.4320  -12.9660 C.3       1     MOL1    0.0000
     24 C18        35.5399   17.4275  -15.6497 C.ar      1     MOL1    0.0000
     25 C19        33.9777   19.0898  -16.4831 C.ar      1     MOL1    0.0000
     26 C20        30.5905   24.4576  -11.9390 C.2       1     MOL1    0.0000
     27 C21        42.9537   24.2866  -12.8182 C.3       1     MOL1    0.0000
     28 C22        34.9469   16.4649  -16.4705 C.ar      1     MOL1    0.0000
     29 C23        33.3862   18.1210  -17.2971 C.ar      1     MOL1    0.0000
     30 C24        33.8708   16.8091  -17.2947 C.ar      1     MOL1    0.0000
     31 H1         36.7961   24.5116  -13.3337 H         1     MOL1    0.0000
     32 H2         36.9100   25.9586  -11.1587 H         1     MOL1    0.0000
     33 H3         37.8356   24.6807  -10.3947 H         1     MOL1    0.0000
     34 H4         38.7232   25.7775  -13.1483 H         1     MOL1    0.0000
     35 H5         38.6421   22.8949  -12.7203 H         1     MOL1    0.0000
     36 H6         37.7535   22.3538  -11.2948 H         1     MOL1    0.0000
     37 H7         35.4229   23.3722  -10.8792 H         1     MOL1    0.0000
     38 H8         39.3923   27.0596  -10.4001 H         1     MOL1    0.0000
     39 H9         38.4223   27.7972  -11.6805 H         1     MOL1    0.0000
     40 H10        40.1370   27.4806  -11.9515 H         1     MOL1    0.0000
     41 H11        36.4707   20.3902  -11.5366 H         1     MOL1    0.0000
     42 H12        37.2030   22.8272  -15.0276 H         1     MOL1    0.0000
     43 H13        33.0878   24.0537  -10.7087 H         1     MOL1    0.0000
     44 H14        32.8030   22.9118  -12.0253 H         1     MOL1    0.0000
     45 H15        35.4122   18.6632  -12.9649 H         1     MOL1    0.0000
     46 H16        36.1092   21.1158  -16.4499 H         1     MOL1    0.0000
     47 H17        31.9896   24.9244  -13.4888 H         1     MOL1    0.0000
     48 H18        32.1330   25.9558  -12.0664 H         1     MOL1    0.0000
     49 H19        41.6107   22.6765  -12.1686 H         1     MOL1    0.0000
     50 H20        41.6225   22.9590  -13.9628 H         1     MOL1    0.0000
     51 H21        36.3784   17.1552  -15.0076 H         1     MOL1    0.0000
     52 H22        33.5994   20.1128  -16.4873 H         1     MOL1    0.0000
     53 H23        42.9969   25.0815  -13.5754 H         1     MOL1    0.0000
     54 H24        43.0014   24.7758  -11.8353 H         1     MOL1    0.0000
     55 H25        43.8669   23.6838  -12.9259 H         1     MOL1    0.0000
     56 H26        35.3260   15.4420  -16.4688 H         1     MOL1    0.0000
     57 H27        32.5449   18.3906  -17.9372 H         1     MOL1    0.0000
     58 H28        33.4115   16.0564  -17.9358 H         1     MOL1    0.0000
     59 H29        28.7469   25.2233  -11.8545 H         1     MOL1    0.0000
@<TRIPOS>BOND
     1    1   13 1
     2    3   14 2
     3    4   26 1
     4    4   59 1
     5    6   37 1
     6    7    6 1
     7    7    8 1
     8    8   32 1
     9    8   33 1
    10    9   13 1
    11    9   12 1
    12    9    8 1
    13   10    7 1
    14   10   36 1
    15   11   15 ar
    16   11   10 1
    17   12   38 1
    18   13    2 2
    19   14   17 1
    20   14    6 am
    21   15   41 1
    22   16   11 ar
    23   17   43 1
    24   18   19 ar
    25   19   45 1
    26   19   15 ar
    27   20   18 ar
    28   20   16 ar
    29   21   48 1
    30   21   26 1
    31   21   17 1
    32   22   24 ar
    33   22   18 1
    34   23    1 1
    35   23   27 1
    36   23   49 1
    37   24   51 1
    38   25   22 ar
    39   26    5 2
    40   27   54 1
    41   28   56 1
    42   28   24 ar
    43   29   30 ar
    44   29   25 ar
    45   30   28 ar
    46   31    7 1
    47   34    9 1
    48   35   10 1
    49   39   12 1
    50   40   12 1
    51   42   16 1
    52   44   17 1
    53   46   20 1
    54   47   21 1
    55   50   23 1
    56   52   25 1
    57   53   27 1
    58   55   27 1
    59   57   29 1
    60   58   30 1
@<TRIPOS>SUBSTRUCTURE
     1     MOL1    1   GROUP 1   MOL 1
#
# Pose information:
# Energy: -83.0173
#
@<TRIPOS>MOLECULE
[00]co-former-valsartan_PM6.out
   61    63    1     0     0
SMALL
USER_CHARGES


@<TRIPOS>ATOM
      1 O1         33.1025   22.7650  -10.1244 O.3       1     POS1    0.0000
      2 O2         33.8113   18.6229  -11.0671 O.2       1     POS1    0.0000
      3 O3         32.4173   23.1313   -8.0375 O.2       1     POS1    0.0000
      4 N1         32.8304   20.0220   -9.5811 N.am      1     POS1    0.0000
      5 N2         35.2169   24.7514   -8.7882 N.ar      1     POS1    0.0000
      6 N3         35.8775   26.8941   -8.4713 N.ar      1     POS1    0.0000
      7 N4         34.2312   25.6330   -9.0777 N.ar      1     POS1    0.0000
      8 N5         34.6351   26.9128   -8.8878 N.ar      1     POS1    0.0000
      9 C1         31.7950   21.0238   -9.2427 C.3       1     POS1    0.0000
     10 C2         30.8500   20.5723   -8.0869 C.3       1     POS1    0.0000
     11 C3         33.8344   19.6280   -8.5518 C.3       1     POS1    0.0000
     12 C4         32.9266   19.4589  -10.8581 C.2       1     POS1    0.0000
     13 C5         29.6037   21.4351   -7.9176 C.3       1     POS1    0.0000
     14 C6         30.4623   19.1101   -8.3228 C.3       1     POS1    0.0000
     15 C7         31.9457   19.8568  -11.9320 C.3       1     POS1    0.0000
     16 C8         32.4416   22.3882   -8.9935 C.2       1     POS1    0.0000
     17 C9         34.8927   20.6867   -8.3549 C.ar      1     POS1    0.0000
     18 C10        32.6615   20.6238  -13.0513 C.3       1     POS1    0.0000
     19 C11        31.6606   21.1489  -14.0888 C.3       1     POS1    0.0000
     20 C12        35.0163   21.3361   -7.1178 C.ar      1     POS1    0.0000
     21 C13        35.7410   21.0427   -9.4120 C.ar      1     POS1    0.0000
     22 C14        36.8313   22.6816   -7.9984 C.ar      1     POS1    0.0000
     23 C15        35.9806   22.3302   -6.9377 C.ar      1     POS1    0.0000
     24 C16        36.7069   22.0340   -9.2357 C.ar      1     POS1    0.0000
     25 C17        32.3583   21.9852  -15.1567 C.3       1     POS1    0.0000
     26 C18        37.8750   23.7133   -7.8050 C.ar      1     POS1    0.0000
     27 C19        37.6005   25.0827   -7.9847 C.ar      1     POS1    0.0000
     28 C20        39.1663   23.3217   -7.4238 C.ar      1     POS1    0.0000
     29 C21        38.6056   26.0411   -7.7703 C.ar      1     POS1    0.0000
     30 C22        40.1636   24.2755   -7.2121 C.ar      1     POS1    0.0000
     31 C23        36.2760   25.5398   -8.3967 C.ar      1     POS1    0.0000
     32 C24        39.8815   25.6352   -7.3815 C.ar      1     POS1    0.0000
     33 H1         31.1334   21.1667  -10.1640 H         1     POS1    0.0000
     34 H2         31.4550   20.6363   -7.1430 H         1     POS1    0.0000
     35 H3         33.3043   19.3943   -7.5905 H         1     POS1    0.0000
     36 H4         34.3153   18.6687   -8.8742 H         1     POS1    0.0000
     37 H5         29.8539   22.4975   -7.7606 H         1     POS1    0.0000
     38 H6         28.9433   21.3861   -8.7935 H         1     POS1    0.0000
     39 H7         29.0149   21.1100   -7.0494 H         1     POS1    0.0000
     40 H8         31.3344   18.4483   -8.3711 H         1     POS1    0.0000
     41 H9         29.8905   18.9760   -9.2495 H         1     POS1    0.0000
     42 H10        29.8283   18.7367   -7.5066 H         1     POS1    0.0000
     43 H11        31.3949   18.9838  -12.3496 H         1     POS1    0.0000
     44 H12        31.1552   20.4941  -11.4721 H         1     POS1    0.0000
     45 H13        33.4089   19.9714  -13.5460 H         1     POS1    0.0000
     46 H14        33.2376   21.4697  -12.6222 H         1     POS1    0.0000
     47 H15        30.8767   21.7537  -13.5900 H         1     POS1    0.0000
     48 H16        31.1247   20.3015  -14.5623 H         1     POS1    0.0000
     49 H17        34.3554   21.0583   -6.2926 H         1     POS1    0.0000
     50 H18        35.6578   20.5344  -10.3764 H         1     POS1    0.0000
     51 H19        36.0748   22.8306   -5.9736 H         1     POS1    0.0000
     52 H20        37.3681   22.3046  -10.0622 H         1     POS1    0.0000
     53 H21        31.6432   22.3625  -15.8977 H         1     POS1    0.0000
     54 H22        33.1133   21.4042  -15.6999 H         1     POS1    0.0000
     55 H23        32.8688   22.8546  -14.7248 H         1     POS1    0.0000
     56 H24        33.8513   23.4201   -9.9585 H         1     POS1    0.0000
     57 H25        39.3905   22.2606   -7.2898 H         1     POS1    0.0000
     58 H26        38.3870   27.1015   -7.9092 H         1     POS1    0.0000
     59 H27        41.1630   23.9591   -6.9103 H         1     POS1    0.0000
     60 H28        40.6625   26.3785   -7.2105 H         1     POS1    0.0000
     61 H29        33.2936   25.3479   -9.4076 H         1     POS1    0.0000
@<TRIPOS>BOND
     1    1   16 1
     2    1   56 1
     3    2   12 2
     4    4   11 1
     5    4    9 1
     6    6   31 ar
     7    7   61 1
     8    7    5 ar
     9    8    6 ar
    10    8    7 ar
    11    9   10 1
    12    9   16 1
    13   10   14 1
    14   10   13 1
    15   11   17 1
    16   11   35 1
    17   12    4 am
    18   13   39 1
    19   13   38 1
    20   14   42 1
    21   14   41 1
    22   15   12 1
    23   15   43 1
    24   16    3 2
    25   17   21 ar
    26   18   15 1
    27   18   45 1
    28   19   18 1
    29   19   48 1
    30   20   23 ar
    31   20   17 ar
    32   21   24 ar
    33   21   50 1
    34   22   26 1
    35   22   24 ar
    36   23   22 ar
    37   24   52 1
    38   25   19 1
    39   25   54 1
    40   26   28 ar
    41   27   29 ar
    42   27   26 ar
    43   28   30 ar
    44   28   57 1
    45   29   32 ar
    46   30   59 1
    47   31    5 ar
    48   31   27 1
    49   32   60 1
    50   32   30 ar
    51   33    9 1
    52   34   10 1
    53   36   11 1
    54   37   13 1
    55   40   14 1
    56   44   15 1
    57   46   18 1
    58   47   19 1
    59   49   20 1
    60   51   23 1
    61   53   25 1
    62   55   25 1
    63   58   29 1
@<TRIPOS>SUBSTRUCTURE
     1     POS1    1   GROUP 1   POS 1
