# Mol2 written by MVD (www.molegro.com)

@<TRIPOS>MOLECULE
drug-sacubitril_PM6.out
   59    60    1     0     0
SMALL
USER_CHARGES


@<TRIPOS>ATOM
      1 O1         40.5252   24.2936  -12.9553 O.3       1     MOL1    0.0000
      2 O2         40.5401   24.4401  -10.7033 O.2       1     MOL1    0.0000
      3 O3         34.4913   24.9237  -13.5183 O.2       1     MOL1    0.0000
      4 O4         29.6913   25.4720  -12.1107 O.3       1     MOL1    0.0000
      5 O5         30.2097   23.3863  -11.5029 O.2       1     MOL1    0.0000
      6 N1         35.5008   23.9010  -11.7531 N.am      1     MOL1    0.0000
      7 C1         36.8787   24.0977  -12.2893 C.3       1     MOL1    0.0000
      8 C2         37.6056   25.1196  -11.3876 C.3       1     MOL1    0.0000
      9 C3         38.8731   25.6948  -12.0366 C.3       1     MOL1    0.0000
     10 C4         37.6112   22.7408  -12.3276 C.3       1     MOL1    0.0000
     11 C5         36.9164   21.7221  -13.1866 C.ar      1     MOL1    0.0000
     12 C6         39.2280   27.0749  -11.4861 C.3       1     MOL1    0.0000
     13 C7         40.0511   24.7695  -11.7658 C.2       1     MOL1    0.0000
     14 C8         34.3831   24.3154  -12.4476 C.2       1     MOL1    0.0000
     15 C9         36.4018   20.5491  -12.6140 C.ar      1     MOL1    0.0000
     16 C10        36.8058   21.9190  -14.5726 C.ar      1     MOL1    0.0000
     17 C11        33.0457   23.9827  -11.8207 C.3       1     MOL1    0.0000
     18 C12        35.6921   19.7745  -14.8015 C.ar      1     MOL1    0.0000
     19 C13        35.8005   19.5780  -13.4164 C.ar      1     MOL1    0.0000
     20 C14        36.1927   20.9558  -15.3733 C.ar      1     MOL1    0.0000
     21 C15        31.9528   24.8947  -12.3683 C.3       1     MOL1    0.0000
     22 C16        35.0596   18.7469  -15.6562 C.ar      1     MOL1    0.0000
     23 C17        41.7169   23.4320  -12.9660 C.3       1     MOL1    0.0000
     24 C18        35.5399   17.4275  -15.6497 C.ar      1     MOL1    0.0000
     25 C19        33.9777   19.0898  -16.4831 C.ar      1     MOL1    0.0000
     26 C20        30.5905   24.4576  -11.9390 C.2       1     MOL1    0.0000
     27 C21        42.9537   24.2866  -12.8182 C.3       1     MOL1    0.0000
     28 C22        34.9469   16.4649  -16.4705 C.ar      1     MOL1    0.0000
     29 C23        33.3862   18.1210  -17.2971 C.ar      1     MOL1    0.0000
     30 C24        33.8708   16.8091  -17.2947 C.ar      1     MOL1    0.0000
     31 H1         36.7961   24.5116  -13.3337 H         1     MOL1    0.0000
     32 H2         36.9100   25.9586  -11.1587 H         1     MOL1    0.0000
     33 H3         37.8356   24.6807  -10.3947 H         1     MOL1    0.0000
     34 H4         38.7232   25.7775  -13.1483 H         1     MOL1    0.0000
     35 H5         38.6421   22.8949  -12.7203 H         1     MOL1    0.0000
     36 H6         37.7535   22.3538  -11.2948 H         1     MOL1    0.0000
     37 H7         35.4229   23.3722  -10.8792 H         1     MOL1    0.0000
     38 H8         39.3923   27.0596  -10.4001 H         1     MOL1    0.0000
     39 H9         38.4223   27.7972  -11.6805 H         1     MOL1    0.0000
     40 H10        40.1370   27.4806  -11.9515 H         1     MOL1    0.0000
     41 H11        36.4707   20.3902  -11.5366 H         1     MOL1    0.0000
     42 H12        37.2030   22.8272  -15.0276 H         1     MOL1    0.0000
     43 H13        33.0878   24.0537  -10.7087 H         1     MOL1    0.0000
     44 H14        32.8030   22.9118  -12.0253 H         1     MOL1    0.0000
     45 H15        35.4122   18.6632  -12.9649 H         1     MOL1    0.0000
     46 H16        36.1092   21.1158  -16.4499 H         1     MOL1    0.0000
     47 H17        31.9896   24.9244  -13.4888 H         1     MOL1    0.0000
     48 H18        32.1330   25.9558  -12.0664 H         1     MOL1    0.0000
     49 H19        41.6107   22.6765  -12.1686 H         1     MOL1    0.0000
     50 H20        41.6225   22.9590  -13.9628 H         1     MOL1    0.0000
     51 H21        36.3784   17.1552  -15.0076 H         1     MOL1    0.0000
     52 H22        33.5994   20.1128  -16.4873 H         1     MOL1    0.0000
     53 H23        42.9969   25.0815  -13.5754 H         1     MOL1    0.0000
     54 H24        43.0014   24.7758  -11.8353 H         1     MOL1    0.0000
     55 H25        43.8669   23.6838  -12.9259 H         1     MOL1    0.0000
     56 H26        35.3260   15.4420  -16.4688 H         1     MOL1    0.0000
     57 H27        32.5449   18.3906  -17.9372 H         1     MOL1    0.0000
     58 H28        33.4115   16.0564  -17.9358 H         1     MOL1    0.0000
     59 H29        28.7469   25.2233  -11.8545 H         1     MOL1    0.0000
@<TRIPOS>BOND
     1    1   13 1
     2    3   14 2
     3    4   26 1
     4    4   59 1
     5    6   37 1
     6    7    6 1
     7    7    8 1
     8    8   32 1
     9    8   33 1
    10    9   13 1
    11    9   12 1
    12    9    8 1
    13   10    7 1
    14   10   36 1
    15   11   15 ar
    16   11   10 1
    17   12   38 1
    18   13    2 2
    19   14   17 1
    20   14    6 am
    21   15   41 1
    22   16   11 ar
    23   17   43 1
    24   18   19 ar
    25   19   45 1
    26   19   15 ar
    27   20   18 ar
    28   20   16 ar
    29   21   48 1
    30   21   26 1
    31   21   17 1
    32   22   24 ar
    33   22   18 1
    34   23    1 1
    35   23   27 1
    36   23   49 1
    37   24   51 1
    38   25   22 ar
    39   26    5 2
    40   27   54 1
    41   28   56 1
    42   28   24 ar
    43   29   30 ar
    44   29   25 ar
    45   30   28 ar
    46   31    7 1
    47   34    9 1
    48   35   10 1
    49   39   12 1
    50   40   12 1
    51   42   16 1
    52   44   17 1
    53   46   20 1
    54   47   21 1
    55   50   23 1
    56   52   25 1
    57   53   27 1
    58   55   27 1
    59   57   29 1
    60   58   30 1
@<TRIPOS>SUBSTRUCTURE
     1     MOL1    1   GROUP 1   MOL 1
#
# Pose information:
# Energy: -67.5236
#
@<TRIPOS>MOLECULE
[00]hesperetin
   36    38    1     0     0
SMALL
USER_CHARGES


@<TRIPOS>ATOM
      1 C1         30.3763   23.7923  -16.5096 C.3       1     POS1    0.0000
      2 O1         31.4307   22.7907  -16.5453 O.3       1     POS1    0.0000
      3 C2         31.4122   21.8175  -15.5718 C.ar      1     POS1    0.0000
      4 C3         30.4409   20.8412  -15.3819 C.ar      1     POS1    0.0000
      5 C4         30.5902   19.9169  -14.3356 C.ar      1     POS1    0.0000
      6 C5         31.6981   19.9640  -13.4895 C.ar      1     POS1    0.0000
      7 C6         32.6922   20.9456  -13.6810 C.ar      1     POS1    0.0000
      8 C7         32.5477   21.8672  -14.7113 C.ar      1     POS1    0.0000
      9 O2         33.5415   22.8039  -14.8582 O.3       1     POS1    0.0000
     10 C8         31.9054   18.9883  -12.3543 C.3       1     POS1    0.0000
     11 C9         30.7842   18.8823  -11.3376 C.3       1     POS1    0.0000
     12 C10        30.6455   20.1213  -10.4821 C.2       1     POS1    0.0000
     13 O3         29.5439   20.4774  -10.0877 O.2       1     POS1    0.0000
     14 C11        31.8929   20.7885  -10.1525 C.ar      1     POS1    0.0000
     15 C12        31.9797   21.8389   -9.1993 C.ar      1     POS1    0.0000
     16 O4         30.8084   22.2575   -8.6713 O.3       1     POS1    0.0000
     17 C13        33.1986   22.4041   -8.8147 C.ar      1     POS1    0.0000
     18 C14        34.3717   21.9093   -9.4083 C.ar      1     POS1    0.0000
     19 O5         35.5228   22.4865   -8.9926 O.3       1     POS1    0.0000
     20 C15        34.3559   20.8922  -10.3767 C.ar      1     POS1    0.0000
     21 C16        33.1159   20.3620  -10.7404 C.ar      1     POS1    0.0000
     22 O6         33.1661   19.3822  -11.6792 O.3       1     POS1    0.0000
     23 H1         30.6829   24.4693  -17.3188 H         1     POS1    0.0000
     24 H2         30.3713   24.3097  -15.5454 H         1     POS1    0.0000
     25 H3         29.4094   23.3280  -16.7286 H         1     POS1    0.0000
     26 H4         29.5665   20.7813  -16.0325 H         1     POS1    0.0000
     27 H5         29.8164   19.1566  -14.2032 H         1     POS1    0.0000
     28 H6         33.5614   20.9950  -13.0206 H         1     POS1    0.0000
     29 H7         33.3545   23.4196  -15.6316 H         1     POS1    0.0000
     30 H8         32.2075   17.9795  -12.7401 H         1     POS1    0.0000
     31 H9         29.8203   18.6256  -11.8354 H         1     POS1    0.0000
     32 H10        30.9593   18.0086  -10.6598 H         1     POS1    0.0000
     33 H11        30.2256   22.7424   -9.3465 H         1     POS1    0.0000
     34 H12        33.2485   23.2020   -8.0762 H         1     POS1    0.0000
     35 H13        36.3445   22.1038   -9.4453 H         1     POS1    0.0000
     36 H14        35.2719   20.5338  -10.8424 H         1     POS1    0.0000
@<TRIPOS>BOND
     1    1   25 1
     2    1    2 1
     3    1   24 1
     4    2    3 1
     5    3    8 ar
     6    3    4 ar
     7    4    5 ar
     8    5    6 ar
     9    5   27 1
    10    6   10 1
    11    7   28 1
    12    7    6 ar
    13    8    7 ar
    14    9    8 1
    15   10   22 1
    16   10   11 1
    17   11   12 1
    18   11   32 1
    19   12   13 2
    20   14   12 1
    21   14   15 ar
    22   15   17 ar
    23   15   16 1
    24   16   33 1
    25   17   34 1
    26   18   19 1
    27   18   17 ar
    28   20   18 ar
    29   21   20 ar
    30   21   14 ar
    31   22   21 1
    32   23    1 1
    33   26    4 1
    34   29    9 1
    35   30   10 1
    36   31   11 1
    37   35   19 1
    38   36   20 1
@<TRIPOS>SUBSTRUCTURE
     1     POS1    1   GROUP 1   POS 1
