# Mol2 written by MVD (www.molegro.com)

@<TRIPOS>MOLECULE
drug-sacubitril_PM6.out
   59    60    1     0     0
SMALL
USER_CHARGES


@<TRIPOS>ATOM
      1 O1         40.5252   24.2936  -12.9553 O.3       1     MOL1    0.0000
      2 O2         40.5401   24.4401  -10.7033 O.2       1     MOL1    0.0000
      3 O3         34.4913   24.9237  -13.5183 O.2       1     MOL1    0.0000
      4 O4         29.6913   25.4720  -12.1107 O.3       1     MOL1    0.0000
      5 O5         30.2097   23.3863  -11.5029 O.2       1     MOL1    0.0000
      6 N1         35.5008   23.9010  -11.7531 N.am      1     MOL1    0.0000
      7 C1         36.8787   24.0977  -12.2893 C.3       1     MOL1    0.0000
      8 C2         37.6056   25.1196  -11.3876 C.3       1     MOL1    0.0000
      9 C3         38.8731   25.6948  -12.0366 C.3       1     MOL1    0.0000
     10 C4         37.6112   22.7408  -12.3276 C.3       1     MOL1    0.0000
     11 C5         36.9164   21.7221  -13.1866 C.ar      1     MOL1    0.0000
     12 C6         39.2280   27.0749  -11.4861 C.3       1     MOL1    0.0000
     13 C7         40.0511   24.7695  -11.7658 C.2       1     MOL1    0.0000
     14 C8         34.3831   24.3154  -12.4476 C.2       1     MOL1    0.0000
     15 C9         36.4018   20.5491  -12.6140 C.ar      1     MOL1    0.0000
     16 C10        36.8058   21.9190  -14.5726 C.ar      1     MOL1    0.0000
     17 C11        33.0457   23.9827  -11.8207 C.3       1     MOL1    0.0000
     18 C12        35.6921   19.7745  -14.8015 C.ar      1     MOL1    0.0000
     19 C13        35.8005   19.5780  -13.4164 C.ar      1     MOL1    0.0000
     20 C14        36.1927   20.9558  -15.3733 C.ar      1     MOL1    0.0000
     21 C15        31.9528   24.8947  -12.3683 C.3       1     MOL1    0.0000
     22 C16        35.0596   18.7469  -15.6562 C.ar      1     MOL1    0.0000
     23 C17        41.7169   23.4320  -12.9660 C.3       1     MOL1    0.0000
     24 C18        35.5399   17.4275  -15.6497 C.ar      1     MOL1    0.0000
     25 C19        33.9777   19.0898  -16.4831 C.ar      1     MOL1    0.0000
     26 C20        30.5905   24.4576  -11.9390 C.2       1     MOL1    0.0000
     27 C21        42.9537   24.2866  -12.8182 C.3       1     MOL1    0.0000
     28 C22        34.9469   16.4649  -16.4705 C.ar      1     MOL1    0.0000
     29 C23        33.3862   18.1210  -17.2971 C.ar      1     MOL1    0.0000
     30 C24        33.8708   16.8091  -17.2947 C.ar      1     MOL1    0.0000
     31 H1         36.7961   24.5116  -13.3337 H         1     MOL1    0.0000
     32 H2         36.9100   25.9586  -11.1587 H         1     MOL1    0.0000
     33 H3         37.8356   24.6807  -10.3947 H         1     MOL1    0.0000
     34 H4         38.7232   25.7775  -13.1483 H         1     MOL1    0.0000
     35 H5         38.6421   22.8949  -12.7203 H         1     MOL1    0.0000
     36 H6         37.7535   22.3538  -11.2948 H         1     MOL1    0.0000
     37 H7         35.4229   23.3722  -10.8792 H         1     MOL1    0.0000
     38 H8         39.3923   27.0596  -10.4001 H         1     MOL1    0.0000
     39 H9         38.4223   27.7972  -11.6805 H         1     MOL1    0.0000
     40 H10        40.1370   27.4806  -11.9515 H         1     MOL1    0.0000
     41 H11        36.4707   20.3902  -11.5366 H         1     MOL1    0.0000
     42 H12        37.2030   22.8272  -15.0276 H         1     MOL1    0.0000
     43 H13        33.0878   24.0537  -10.7087 H         1     MOL1    0.0000
     44 H14        32.8030   22.9118  -12.0253 H         1     MOL1    0.0000
     45 H15        35.4122   18.6632  -12.9649 H         1     MOL1    0.0000
     46 H16        36.1092   21.1158  -16.4499 H         1     MOL1    0.0000
     47 H17        31.9896   24.9244  -13.4888 H         1     MOL1    0.0000
     48 H18        32.1330   25.9558  -12.0664 H         1     MOL1    0.0000
     49 H19        41.6107   22.6765  -12.1686 H         1     MOL1    0.0000
     50 H20        41.6225   22.9590  -13.9628 H         1     MOL1    0.0000
     51 H21        36.3784   17.1552  -15.0076 H         1     MOL1    0.0000
     52 H22        33.5994   20.1128  -16.4873 H         1     MOL1    0.0000
     53 H23        42.9969   25.0815  -13.5754 H         1     MOL1    0.0000
     54 H24        43.0014   24.7758  -11.8353 H         1     MOL1    0.0000
     55 H25        43.8669   23.6838  -12.9259 H         1     MOL1    0.0000
     56 H26        35.3260   15.4420  -16.4688 H         1     MOL1    0.0000
     57 H27        32.5449   18.3906  -17.9372 H         1     MOL1    0.0000
     58 H28        33.4115   16.0564  -17.9358 H         1     MOL1    0.0000
     59 H29        28.7469   25.2233  -11.8545 H         1     MOL1    0.0000
@<TRIPOS>BOND
     1    1   13 1
     2    3   14 2
     3    4   26 1
     4    4   59 1
     5    6   37 1
     6    7    6 1
     7    7    8 1
     8    8   32 1
     9    8   33 1
    10    9   13 1
    11    9   12 1
    12    9    8 1
    13   10    7 1
    14   10   36 1
    15   11   15 ar
    16   11   10 1
    17   12   38 1
    18   13    2 2
    19   14   17 1
    20   14    6 am
    21   15   41 1
    22   16   11 ar
    23   17   43 1
    24   18   19 ar
    25   19   45 1
    26   19   15 ar
    27   20   18 ar
    28   20   16 ar
    29   21   48 1
    30   21   26 1
    31   21   17 1
    32   22   24 ar
    33   22   18 1
    34   23    1 1
    35   23   27 1
    36   23   49 1
    37   24   51 1
    38   25   22 ar
    39   26    5 2
    40   27   54 1
    41   28   56 1
    42   28   24 ar
    43   29   30 ar
    44   29   25 ar
    45   30   28 ar
    46   31    7 1
    47   34    9 1
    48   35   10 1
    49   39   12 1
    50   40   12 1
    51   42   16 1
    52   44   17 1
    53   46   20 1
    54   47   21 1
    55   50   23 1
    56   52   25 1
    57   53   27 1
    58   55   27 1
    59   57   29 1
    60   58   30 1
@<TRIPOS>SUBSTRUCTURE
     1     MOL1    1   GROUP 1   MOL 1
#
# Pose information:
# Energy: -77.9827
#
@<TRIPOS>MOLECULE
[00]pamoic_acid
   45    48    1     0     0
SMALL
USER_CHARGES


@<TRIPOS>ATOM
      1 C1         39.3651   22.2317  -17.5782 C.3       1     POS1    0.0000
      2 H1         39.3941   22.0822  -18.6849 H         1     POS1    0.0000
      3 C2         39.2584   20.9043  -16.8736 C.ar      1     POS1    0.0000
      4 C3         39.6423   20.7927  -15.5359 C.ar      1     POS1    0.0000
      5 C4         39.5128   19.5599  -14.8116 C.ar      1     POS1    0.0000
      6 C5         39.8826   19.5070  -13.3994 C.2       1     POS1    0.0000
      7 C6         39.0374   18.4362  -15.4759 C.ar      1     POS1    0.0000
      8 H2         38.9352   17.4859  -14.9345 H         1     POS1    0.0000
      9 C7         38.6929   18.4987  -16.8449 C.ar      1     POS1    0.0000
     10 C8         38.2441   17.3224  -17.5406 C.ar      1     POS1    0.0000
     11 H3         38.1624   16.3882  -16.9796 H         1     POS1    0.0000
     12 C9         37.9348   17.3747  -18.8705 C.ar      1     POS1    0.0000
     13 H4         37.6036   16.4871  -19.4107 H         1     POS1    0.0000
     14 C10        38.0407   18.6113  -19.5825 C.ar      1     POS1    0.0000
     15 H5         37.7855   18.6251  -20.6450 H         1     POS1    0.0000
     16 C11        38.4501   19.7487  -18.9445 C.ar      1     POS1    0.0000
     17 H6         38.5084   20.7056  -19.4779 H         1     POS1    0.0000
     18 C12        38.7974   19.7367  -17.5500 C.ar      1     POS1    0.0000
     19 O1         40.1616   21.9074  -14.9580 O.3       1     POS1    0.0000
     20 O2         40.3441   20.4319  -12.7301 O.2       1     POS1    0.0000
     21 O3         39.6707   18.3013  -12.8154 O.3       1     POS1    0.0000
     22 H7         39.6477   22.2135  -14.1273 H         1     POS1    0.0000
     23 H8         39.9408   18.2833  -11.8362 H         1     POS1    0.0000
     24 H9         40.3457   22.7010  -17.3224 H         1     POS1    0.0000
     25 C13        38.2327   23.1662  -17.2398 C.ar      1     POS1    0.0000
     26 C14        38.4615   24.2617  -16.4051 C.ar      1     POS1    0.0000
     27 C15        37.4251   25.2046  -16.0923 C.ar      1     POS1    0.0000
     28 C16        37.7271   26.3619  -15.2538 C.2       1     POS1    0.0000
     29 C17        36.1485   24.9931  -16.5982 C.ar      1     POS1    0.0000
     30 H10        35.3455   25.7055  -16.3656 H         1     POS1    0.0000
     31 C18        35.8681   23.8651  -17.4018 C.ar      1     POS1    0.0000
     32 C19        34.5353   23.6270  -17.8872 C.ar      1     POS1    0.0000
     33 H11        33.7552   24.3492  -17.6343 H         1     POS1    0.0000
     34 C20        34.2550   22.5222  -18.6407 C.ar      1     POS1    0.0000
     35 H12        33.2457   22.3253  -19.0041 H         1     POS1    0.0000
     36 C21        35.2959   21.5973  -18.9700 C.ar      1     POS1    0.0000
     37 H13        35.0444   20.7232  -19.5757 H         1     POS1    0.0000
     38 C22        36.5756   21.8066  -18.5381 C.ar      1     POS1    0.0000
     39 H14        37.3838   21.1173  -18.8120 H         1     POS1    0.0000
     40 C23        36.9119   22.9470  -17.7306 C.ar      1     POS1    0.0000
     41 O4         39.7126   24.3813  -15.8884 O.3       1     POS1    0.0000
     42 O5         38.8287   26.8932  -15.1112 O.2       1     POS1    0.0000
     43 O6         36.6530   26.8662  -14.5969 O.3       1     POS1    0.0000
     44 H15        39.7393   24.3195  -14.8667 H         1     POS1    0.0000
     45 H16        36.0064   26.1470  -14.2856 H         1     POS1    0.0000
@<TRIPOS>BOND
     1    1    2 1
     2    1   25 1
     3    3    1 1
     4    4   19 1
     5    4    3 ar
     6    5    4 ar
     7    6   20 2
     8    6    5 1
     9    7    5 ar
    10    7    9 ar
    11    8    7 1
    12    9   18 ar
    13   10    9 ar
    14   10   12 ar
    15   11   10 1
    16   12   14 ar
    17   13   12 1
    18   14   16 ar
    19   14   15 1
    20   16   17 1
    21   18    3 ar
    22   18   16 ar
    23   21    6 1
    24   22   19 1
    25   23   21 1
    26   24    1 1
    27   25   40 ar
    28   25   26 ar
    29   26   27 ar
    30   27   29 ar
    31   27   28 1
    32   28   43 1
    33   29   30 1
    34   31   32 ar
    35   31   29 ar
    36   32   33 1
    37   34   35 1
    38   34   32 ar
    39   36   34 ar
    40   37   36 1
    41   38   36 ar
    42   38   40 ar
    43   39   38 1
    44   40   31 ar
    45   41   26 1
    46   41   44 1
    47   42   28 2
    48   43   45 1
@<TRIPOS>SUBSTRUCTURE
     1     POS1    1   GROUP 1   POS 1
