# Mol2 written by MVD (www.molegro.com)

@<TRIPOS>MOLECULE
9811834
   59    60    1     0     0
SMALL
USER_CHARGES


@<TRIPOS>ATOM
      1 O1         40.9436   24.8102  -12.4637 O.3       1     MOL1    0.0000
      2 O2         39.9174   23.9099  -10.6192 O.2       1     MOL1    0.0000
      3 O3         34.5390   25.6543  -13.1072 O.2       1     MOL1    0.0000
      4 O4         29.5701   25.4099  -12.2806 O.3       1     MOL1    0.0000
      5 O5         30.3714   23.6454  -11.1772 O.2       1     MOL1    0.0000
      6 N1         35.4068   23.8039  -12.0652 N.am      1     MOL1    0.0000
      7 C1         36.7961   24.0463  -12.4591 C.3       1     MOL1    0.0000
      8 C2         37.4207   25.0797  -11.4919 C.3       1     MOL1    0.0000
      9 C3         38.7925   25.6232  -11.9319 C.3       1     MOL1    0.0000
     10 C4         37.5830   22.7165  -12.5280 C.3       1     MOL1    0.0000
     11 C5         36.9218   21.6336  -13.3665 C.ar      1     MOL1    0.0000
     12 C6         39.0825   26.9649  -11.2593 C.3       1     MOL1    0.0000
     13 C7         39.9230   24.6776  -11.5715 C.2       1     MOL1    0.0000
     14 C8         34.3778   24.6390  -12.4397 C.2       1     MOL1    0.0000
     15 C9         36.5319   20.4665  -12.8008 C.ar      1     MOL1    0.0000
     16 C10        36.7151   21.8091  -14.6933 C.ar      1     MOL1    0.0000
     17 C11        33.0308   24.1719  -11.9373 C.3       1     MOL1    0.0000
     18 C12        35.7313   19.6860  -14.8636 C.ar      1     MOL1    0.0000
     19 C13        35.9425   19.5049  -13.5396 C.ar      1     MOL1    0.0000
     20 C14        36.1254   20.8485  -15.4327 C.ar      1     MOL1    0.0000
     21 C15        31.9103   25.0991  -12.3889 C.3       1     MOL1    0.0000
     22 C16        35.0908   18.6445  -15.6650 C.ar      1     MOL1    0.0000
     23 C17        42.0641   23.9547  -12.2086 C.3       1     MOL1    0.0000
     24 C18        35.8138   17.6060  -16.1494 C.ar      1     MOL1    0.0000
     25 C19        33.7645   18.7026  -15.9358 C.ar      1     MOL1    0.0000
     26 C20        30.5839   24.6201  -11.8780 C.2       1     MOL1    0.0000
     27 C21        43.1061   24.2076  -13.2804 C.3       1     MOL1    0.0000
     28 C22        35.2223   16.6459  -16.8890 C.ar      1     MOL1    0.0000
     29 C23        33.1740   17.7418  -16.6754 C.ar      1     MOL1    0.0000
     30 C24        33.9027   16.7137  -17.1520 C.ar      1     MOL1    0.0000
     31 H1         36.7716   24.4950  -13.4606 H         1     MOL1    0.0000
     32 H2         36.7280   25.9286  -11.4136 H         1     MOL1    0.0000
     33 H3         37.4738   24.6514  -10.4824 H         1     MOL1    0.0000
     34 H4         38.7831   25.7641  -13.0198 H         1     MOL1    0.0000
     35 H5         38.5807   22.8926  -12.9466 H         1     MOL1    0.0000
     36 H6         37.7397   22.3452  -11.5063 H         1     MOL1    0.0000
     37 H7         35.1996   22.9913  -11.4969 H         1     MOL1    0.0000
     38 H8         39.0888   26.8687  -10.1677 H         1     MOL1    0.0000
     39 H9         38.3285   27.7104  -11.5327 H         1     MOL1    0.0000
     40 H10        40.0617   27.3526  -11.5612 H         1     MOL1    0.0000
     41 H11        36.6891   20.2865  -11.7401 H         1     MOL1    0.0000
     42 H12        37.0198   22.7310  -15.1825 H         1     MOL1    0.0000
     43 H13        33.0670   24.1267  -10.8421 H         1     MOL1    0.0000
     44 H14        32.8542   23.1558  -12.3108 H         1     MOL1    0.0000
     45 H15        35.6369   18.5781  -13.0594 H         1     MOL1    0.0000
     46 H16        35.9696   21.0178  -16.4957 H         1     MOL1    0.0000
     47 H17        31.8690   25.1345  -13.4833 H         1     MOL1    0.0000
     48 H18        32.0821   26.1127  -12.0095 H         1     MOL1    0.0000
     49 H19        42.4845   24.1811  -11.2224 H         1     MOL1    0.0000
     50 H20        41.7446   22.9070  -12.2431 H         1     MOL1    0.0000
     51 H21        36.8800   17.5388  -15.9464 H         1     MOL1    0.0000
     52 H22        33.1634   19.5259  -15.5573 H         1     MOL1    0.0000
     53 H23        42.6934   24.0058  -14.2744 H         1     MOL1    0.0000
     54 H24        43.4199   25.2567  -13.2729 H         1     MOL1    0.0000
     55 H25        43.9848   23.5749  -13.1275 H         1     MOL1    0.0000
     56 H26        35.8110   15.8177  -17.2732 H         1     MOL1    0.0000
     57 H27        32.1099   17.7977  -16.8867 H         1     MOL1    0.0000
     58 H28        33.4266   15.9402  -17.7480 H         1     MOL1    0.0000
     59 H29        28.7714   24.9999  -11.8878 H         1     MOL1    0.0000
@<TRIPOS>BOND
     1    1   13 1
     2    1   23 1
     3    2   13 2
     4    3   14 2
     5    4   26 1
     6    4   59 1
     7    5   26 2
     8    6    7 1
     9    6   14 am
    10    6   37 1
    11    7    8 1
    12    7   10 1
    13    7   31 1
    14    8    9 1
    15    8   32 1
    16    8   33 1
    17    9   12 1
    18    9   13 1
    19    9   34 1
    20   10   11 1
    21   10   35 1
    22   10   36 1
    23   11   15 ar
    24   11   16 ar
    25   12   38 1
    26   12   39 1
    27   12   40 1
    28   14   17 1
    29   15   19 ar
    30   15   41 1
    31   16   20 ar
    32   16   42 1
    33   17   21 1
    34   17   43 1
    35   17   44 1
    36   18   19 ar
    37   18   20 ar
    38   18   22 1
    39   19   45 1
    40   20   46 1
    41   21   26 1
    42   21   47 1
    43   21   48 1
    44   22   24 ar
    45   22   25 ar
    46   23   27 1
    47   23   49 1
    48   23   50 1
    49   24   28 ar
    50   24   51 1
    51   25   29 ar
    52   25   52 1
    53   27   53 1
    54   27   54 1
    55   27   55 1
    56   28   30 ar
    57   28   56 1
    58   29   30 ar
    59   29   57 1
    60   30   58 1
@<TRIPOS>SUBSTRUCTURE
     1     MOL1    1   GROUP 1   MOL 1
#
# Pose information:
# Energy: -97.3637
#
@<TRIPOS>MOLECULE
[00]L-glutathione
   37    36    1     0     0
SMALL
USER_CHARGES


@<TRIPOS>ATOM
      1 O1         36.1339   24.5686  -16.0880 O.2       1     POS1    0.0000
      2 C1         35.3341   24.0707  -16.8431 C.2       1     POS1    0.0000
      3 N1         35.7785   23.3652  -17.9275 N.am      1     POS1    0.0000
      4 C2         34.9527   22.7951  -18.9932 C.3       1     POS1    0.0000
      5 C3         35.0146   21.2877  -18.8281 C.2       1     POS1    0.0000
      6 O2         33.8214   20.7538  -18.5204 O.3       1     POS1    0.0000
      7 O3         36.0176   20.6249  -18.9517 O.2       1     POS1    0.0000
      8 C4         33.8205   24.2131  -16.6591 C.3       1     POS1    0.0000
      9 C5         33.3475   25.6817  -16.6006 C.3       1     POS1    0.0000
     10 S1         34.4011   26.6251  -15.4483 S.3       1     POS1    0.0000
     11 N2         33.3404   23.4953  -15.4699 N.am      1     POS1    0.0000
     12 C6         32.3669   22.5337  -15.5222 C.2       1     POS1    0.0000
     13 C7         31.9661   21.9786  -14.1642 C.3       1     POS1    0.0000
     14 C8         33.0246   21.0491  -13.5476 C.3       1     POS1    0.0000
     15 C9         32.5499   20.3555  -12.2584 C.3       1     POS1    0.0000
     16 N3         33.0034   18.9560  -12.2148 N.3       1     POS1    0.0000
     17 C10        33.0180   21.0647  -11.0008 C.2       1     POS1    0.0000
     18 O4         31.9750   21.4004  -10.2178 O.3       1     POS1    0.0000
     19 O5         34.1528   21.3278  -10.6824 O.2       1     POS1    0.0000
     20 O6         31.8760   22.1606  -16.5604 O.2       1     POS1    0.0000
     21 H1         36.7914   23.2784  -18.0300 H         1     POS1    0.0000
     22 H2         33.8926   23.1158  -18.8778 H         1     POS1    0.0000
     23 H3         35.3506   23.0611  -19.9986 H         1     POS1    0.0000
     24 H4         33.3695   21.3444  -17.8962 H         1     POS1    0.0000
     25 H5         33.3906   23.7684  -17.5900 H         1     POS1    0.0000
     26 H6         33.3529   26.1419  -17.6156 H         1     POS1    0.0000
     27 H7         32.2933   25.7156  -16.2359 H         1     POS1    0.0000
     28 H8         34.2118   25.8217  -14.3866 H         1     POS1    0.0000
     29 H9         33.6860   23.7904  -14.5567 H         1     POS1    0.0000
     30 H10        31.0072   21.4213  -14.2804 H         1     POS1    0.0000
     31 H11        31.7788   22.8456  -13.4877 H         1     POS1    0.0000
     32 H12        33.9453   21.6380  -13.3189 H         1     POS1    0.0000
     33 H13        33.3017   20.2727  -14.3007 H         1     POS1    0.0000
     34 H14        31.4337   20.3532  -12.2349 H         1     POS1    0.0000
     35 H15        32.7376   18.5194  -11.3145 H         1     POS1    0.0000
     36 H16        32.5261   18.3892  -12.9363 H         1     POS1    0.0000
     37 H17        31.5196   22.1513  -10.6321 H         1     POS1    0.0000
@<TRIPOS>BOND
     1    1    2 2
     2    2    3 am
     3    2    8 1
     4    3    4 1
     5    3   21 1
     6    4    5 1
     7    4   22 1
     8    4   23 1
     9    5    6 1
    10    5    7 2
    11    6   24 1
    12    8    9 1
    13    8   11 1
    14    8   25 1
    15    9   10 1
    16    9   26 1
    17    9   27 1
    18   10   28 1
    19   11   12 am
    20   11   29 1
    21   12   13 1
    22   12   20 2
    23   13   14 1
    24   13   30 1
    25   13   31 1
    26   14   15 1
    27   14   32 1
    28   14   33 1
    29   15   16 1
    30   15   17 1
    31   15   34 1
    32   16   35 1
    33   16   36 1
    34   17   18 1
    35   17   19 2
    36   18   37 1
@<TRIPOS>SUBSTRUCTURE
     1     POS1    1   GROUP 1   POS 1
